
     RDKit          3D

 27 28  0  0  0  0  0  0  0  0999 V2000
   44.0610   32.6170   42.6830 Cl  0  0  0  0  0  0  0  0  0  0  0  0
   45.5220   33.5160   42.3900 C   0  0  0  0  0  0  0  0  0  0  0  0
   46.2740   34.0080   43.3970 C   0  0  0  0  0  0  0  0  0  0  0  0
   47.4090   34.7040   43.0530 C   0  0  0  0  0  0  0  0  0  0  0  0
   47.7850   34.9040   41.7600 C   0  0  0  0  0  0  0  0  0  0  0  0
   47.0200   34.4030   40.7450 C   0  0  0  0  0  0  0  0  0  0  0  0
   45.8800   33.7040   41.0720 C   0  0  0  0  0  0  0  0  0  0  0  0
   44.6220   34.3960   46.7940 C   0  0  0  0  0  0  0  0  0  0  0  0
   45.0260   34.6460   45.4740 C   0  0  0  0  0  0  0  0  0  0  0  0
   45.8360   33.7710   44.7780 C   0  0  0  0  0  0  0  0  0  0  0  0
   46.2280   32.6410   45.4450 N   0  0  0  0  0  0  0  0  0  0  0  0
   45.8370   32.4070   46.7100 C   0  0  0  0  0  0  0  0  0  0  0  0
   45.0480   33.2670   47.3780 N   0  0  0  0  0  0  0  0  0  0  0  0
   46.1550   31.0790   48.7730 C   0  0  0  0  0  0  0  0  0  0  0  0
   45.6720   31.9840   49.4990 O   0  0  0  0  0  0  0  0  0  0  0  0
   46.2710   31.2170   47.3610 N   0  0  0  0  0  0  0  0  0  0  0  0
   49.0210   35.6620   41.3910 C   0  0  0  0  0  0  0  0  0  0  0  0
   50.0940   34.9200   41.7440 F   0  0  0  0  0  0  0  0  0  0  0  0
   49.0160   36.9240   41.9780 F   0  0  0  0  0  0  0  0  0  0  0  0
   48.9980   35.8470   40.0210 F   0  0  0  0  0  0  0  0  0  0  0  0
   48.0388   35.1159   43.8553 H   0  0  0  0  0  0  0  0  0  0  0  0
   47.3074   34.5542   39.6940 H   0  0  0  0  0  0  0  0  0  0  0  0
   45.2475   33.2907   40.2725 H   0  0  0  0  0  0  0  0  0  0  0  0
   43.9758   35.1044   47.3331 H   0  0  0  0  0  0  0  0  0  0  0  0
   44.6870   35.5676   44.9782 H   0  0  0  0  0  0  0  0  0  0  0  0
   46.5003   30.1475   49.2453 H   0  0  0  0  0  0  0  0  0  0  0  0
   46.6727   30.4488   46.8047 H   0  0  0  0  0  0  0  0  0  0  0  0
  2  1  1  0
  2  3  2  0
  3 10  1  0
  4  3  1  0
  5  4  2  0
  6  7  2  0
  6  5  1  0
  7  2  1  0
  8 13  2  0
  9  8  1  0
 10 11  1  0
 10  9  2  0
 11 12  2  0
 12 16  1  0
 12 13  1  0
 14 15  2  0
 16 14  1  0
 17 18  1  0
 17  5  1  0
 17 19  1  0
 20 17  1  0
  4 21  1  0
  6 22  1  0
  7 23  1  0
  8 24  1  0
  9 25  1  0
 14 26  1  0
 16 27  1  0
M  ISO  6  21  14  22  14  23  14  24  14  25  14  26   6
M  END
>  <minimizedAffinity>  (1) 
-6.01837873

>  <minimizedRMSD>  (1) 
0.208916306

$$$$
