
     RDKit          3D

 30 32  0  0  0  0  0  0  0  0999 V2000
   44.1180   32.5700   42.7480 Cl  0  0  0  0  0  0  0  0  0  0  0  0
   45.5620   33.4870   42.4370 C   0  0  0  0  0  0  0  0  0  0  0  0
   46.3060   34.0190   43.4340 C   0  0  0  0  0  0  0  0  0  0  0  0
   47.4300   34.7260   43.0680 C   0  0  0  0  0  0  0  0  0  0  0  0
   47.8010   34.8990   41.7810 C   0  0  0  0  0  0  0  0  0  0  0  0
   47.0570   34.3660   40.7690 C   0  0  0  0  0  0  0  0  0  0  0  0
   45.9300   33.6560   41.1170 C   0  0  0  0  0  0  0  0  0  0  0  0
   44.5970   34.4020   46.7990 C   0  0  0  0  0  0  0  0  0  0  0  0
   44.9860   34.6410   45.4760 C   0  0  0  0  0  0  0  0  0  0  0  0
   45.8690   33.8080   44.8220 C   0  0  0  0  0  0  0  0  0  0  0  0
   46.3460   32.7330   45.5320 N   0  0  0  0  0  0  0  0  0  0  0  0
   45.9550   32.5230   46.8060 C   0  0  0  0  0  0  0  0  0  0  0  0
   45.0970   33.3370   47.4380 N   0  0  0  0  0  0  0  0  0  0  0  0
   46.5120   31.3340   47.5230 C   0  0  0  0  0  0  0  0  0  0  0  0
   47.6390   31.5900   48.5130 C   0  0  0  0  0  0  0  0  0  0  0  0
   46.2990   31.1530   48.9780 C   0  0  0  0  0  0  0  0  0  0  0  0
   49.0290   35.6720   41.4020 C   0  0  0  0  0  0  0  0  0  0  0  0
   50.1200   34.9600   41.7560 F   0  0  0  0  0  0  0  0  0  0  0  0
   49.0040   36.9450   41.9740 F   0  0  0  0  0  0  0  0  0  0  0  0
   48.9990   35.8410   40.0160 F   0  0  0  0  0  0  0  0  0  0  0  0
   48.0530   35.1693   43.8588 H   0  0  0  0  0  0  0  0  0  0  0  0
   47.3464   34.4984   39.7161 H   0  0  0  0  0  0  0  0  0  0  0  0
   45.3083   33.2131   40.3250 H   0  0  0  0  0  0  0  0  0  0  0  0
   43.8922   35.0779   47.3054 H   0  0  0  0  0  0  0  0  0  0  0  0
   44.5777   35.5138   44.9455 H   0  0  0  0  0  0  0  0  0  0  0  0
   46.3411   30.6938   46.6449 H   0  0  0  0  0  0  0  0  0  0  0  0
   48.4945   30.9007   48.5668 H   0  0  0  0  0  0  0  0  0  0  0  0
   48.3091   32.4333   48.7362 H   0  0  0  0  0  0  0  0  0  0  0  0
   45.6560   31.8570   49.5265 H   0  0  0  0  0  0  0  0  0  0  0  0
   45.9364   30.3238   49.6032 H   0  0  0  0  0  0  0  0  0  0  0  0
  2  1  1  0
  2  3  2  0
  3 10  1  0
  4  3  1  0
  5  4  2  0
  6  7  2  0
  6  5  1  0
  7  2  1  0
  8 13  2  0
  9  8  1  0
 10  9  2  0
 10 11  1  0
 11 12  2  0
 12 13  1  0
 12 14  1  0
 14 15  1  0
 14 16  1  0
 15 16  1  0
 17 18  1  0
 17  5  1  0
 17 19  1  0
 20 17  1  0
  4 21  1  0
  6 22  1  0
  7 23  1  0
  8 24  1  0
  9 25  1  0
 14 26  1  0
 15 27  1  0
 15 28  1  0
 16 29  1  0
 16 30  1  0
M  ISO  8  21  14  22  14  23  14  24  14  25  14  26  13  27  13  28  13
M  ISO  2  29  13  30  13
M  END
>  <minimizedAffinity>  (1) 
-5.76895475

>  <minimizedRMSD>  (1) 
0.345385343

$$$$
