
     RDKit          3D

 29 30  0  0  0  0  0  0  0  0999 V2000
   44.0810   32.5860   42.7160 Cl  0  0  0  0  0  0  0  0  0  0  0  0
   45.5300   33.4940   42.4030 C   0  0  0  0  0  0  0  0  0  0  0  0
   46.2700   34.0490   43.4060 C   0  0  0  0  0  0  0  0  0  0  0  0
   47.3880   34.7400   43.0260 C   0  0  0  0  0  0  0  0  0  0  0  0
   47.7870   34.8960   41.7450 C   0  0  0  0  0  0  0  0  0  0  0  0
   47.0370   34.3340   40.7310 C   0  0  0  0  0  0  0  0  0  0  0  0
   45.9090   33.6340   41.0760 C   0  0  0  0  0  0  0  0  0  0  0  0
   44.5430   34.5620   46.7330 C   0  0  0  0  0  0  0  0  0  0  0  0
   44.9650   34.7540   45.4200 C   0  0  0  0  0  0  0  0  0  0  0  0
   45.8180   33.8670   44.7810 C   0  0  0  0  0  0  0  0  0  0  0  0
   46.2240   32.7890   45.5100 N   0  0  0  0  0  0  0  0  0  0  0  0
   45.8090   32.6130   46.7830 C   0  0  0  0  0  0  0  0  0  0  0  0
   44.9800   33.4810   47.3960 N   0  0  0  0  0  0  0  0  0  0  0  0
   46.2610   31.4240   47.5810 C   0  0  0  0  0  0  0  0  0  0  0  0
   45.7270   31.6710   48.9950 C   0  0  0  0  0  0  0  0  0  0  0  0
   49.0080   35.6530   41.3590 C   0  0  0  0  0  0  0  0  0  0  0  0
   50.1000   34.9020   41.7070 F   0  0  0  0  0  0  0  0  0  0  0  0
   49.0250   36.9030   41.9380 F   0  0  0  0  0  0  0  0  0  0  0  0
   48.9830   35.8190   39.9730 F   0  0  0  0  0  0  0  0  0  0  0  0
   48.0020   35.1984   43.8152 H   0  0  0  0  0  0  0  0  0  0  0  0
   47.3352   34.4444   39.6780 H   0  0  0  0  0  0  0  0  0  0  0  0
   45.2945   33.1759   40.2870 H   0  0  0  0  0  0  0  0  0  0  0  0
   43.8657   35.2815   47.2162 H   0  0  0  0  0  0  0  0  0  0  0  0
   44.6098   35.6388   44.8714 H   0  0  0  0  0  0  0  0  0  0  0  0
   45.8404   30.4965   47.1652 H   0  0  0  0  0  0  0  0  0  0  0  0
   47.3547   31.3075   47.5663 H   0  0  0  0  0  0  0  0  0  0  0  0
   46.4682   31.3282   49.7319 H   0  0  0  0  0  0  0  0  0  0  0  0
   45.5417   32.7463   49.1343 H   0  0  0  0  0  0  0  0  0  0  0  0
   44.7876   31.1160   49.1343 H   0  0  0  0  0  0  0  0  0  0  0  0
  2  1  1  0
  2  3  2  0
  3 10  1  0
  4  3  1  0
  5  4  2  0
  6  7  2  0
  6  5  1  0
  7  2  1  0
  8 13  2  0
  9  8  1  0
 10  9  2  0
 10 11  1  0
 11 12  2  0
 12 13  1  0
 12 14  1  0
 14 15  1  0
 16 17  1  0
 16  5  1  0
 16 18  1  0
 19 16  1  0
  4 20  1  0
  6 21  1  0
  7 22  1  0
  8 23  1  0
  9 24  1  0
 14 25  1  0
 14 26  1  0
 15 27  1  0
 15 28  1  0
 15 29  1  0
M  ISO  8  20  14  21  14  22  14  23  14  24  14  25   8  26   8  27   8
M  ISO  2  28   8  29   8
M  END
>  <minimizedAffinity>  (1) 
-5.50833559

>  <minimizedRMSD>  (1) 
0.32807529

$$$$
