
     RDKit          3D

 34 36  0  0  0  0  0  0  0  0999 V2000
   45.3130   36.0460   43.3270 C   0  0  0  0  0  0  0  0  0  0  0  0
   46.1330   34.9290   43.1890 C   0  0  0  0  0  0  0  0  0  0  0  0
   46.1550   34.0170   44.2220 C   0  0  0  0  0  0  0  0  0  0  0  0
   45.4020   34.1980   45.3400 N   0  0  0  0  0  0  0  0  0  0  0  0
   44.6040   35.3100   45.4440 C   0  0  0  0  0  0  0  0  0  0  0  0
   44.5740   36.1940   44.4560 N   0  0  0  0  0  0  0  0  0  0  0  0
   46.8570   34.8140   41.9920 N   0  0  0  0  0  0  0  0  0  0  0  0
   48.1540   35.3650   41.8780 C   0  0  0  0  0  0  0  0  0  0  0  0
   48.7180   35.2510   40.5020 C   0  0  0  0  0  0  0  0  0  0  0  0
   48.5720   33.9880   39.9070 N   0  0  0  0  0  0  0  0  0  0  0  0
   47.3570   33.3190   40.1250 C   0  0  0  0  0  0  0  0  0  0  0  0
   46.3490   34.1780   40.8050 C   0  0  0  0  0  0  0  0  0  0  0  0
   46.8490   32.7750   44.3430 C   0  0  0  0  0  0  0  0  0  0  0  0
   47.6000   31.8870   43.6010 C   0  0  0  0  0  0  0  0  0  0  0  0
   48.1150   30.6910   44.0270 C   0  0  0  0  0  0  0  0  0  0  0  0
   47.9000   30.2690   45.3200 C   0  0  0  0  0  0  0  0  0  0  0  0
   47.1610   31.0800   46.1530 C   0  0  0  0  0  0  0  0  0  0  0  0
   46.6620   32.2900   45.6590 C   0  0  0  0  0  0  0  0  0  0  0  0
   45.2646   36.8012   42.5287 H   0  0  0  0  0  0  0  0  0  0  0  0
   43.9914   35.4673   46.3440 H   0  0  0  0  0  0  0  0  0  0  0  0
   48.1075   36.4297   42.1504 H   0  0  0  0  0  0  0  0  0  0  0  0
   48.8127   34.7967   42.5511 H   0  0  0  0  0  0  0  0  0  0  0  0
   48.2128   35.9903   39.8631 H   0  0  0  0  0  0  0  0  0  0  0  0
   49.8001   35.4248   40.5963 H   0  0  0  0  0  0  0  0  0  0  0  0
   49.3271   33.3862   40.2655 H   0  0  0  0  0  0  0  0  0  0  0  0
   46.9509   32.9992   39.1540 H   0  0  0  0  0  0  0  0  0  0  0  0
   47.5609   32.4592   40.7801 H   0  0  0  0  0  0  0  0  0  0  0  0
   46.0230   34.9586   40.1019 H   0  0  0  0  0  0  0  0  0  0  0  0
   45.5174   33.5268   41.1124 H   0  0  0  0  0  0  0  0  0  0  0  0
   47.8070   32.1687   42.5580 H   0  0  0  0  0  0  0  0  0  0  0  0
   48.7007   30.0674   43.3356 H   0  0  0  0  0  0  0  0  0  0  0  0
   48.3068   29.3116   45.6776 H   0  0  0  0  0  0  0  0  0  0  0  0
   46.9658   30.7800   47.1932 H   0  0  0  0  0  0  0  0  0  0  0  0
   46.0768   32.9150   46.3496 H   0  0  0  0  0  0  0  0  0  0  0  0
  1  6  2  0
  2  1  1  0
  2  3  2  0
  3 13  1  0
  3  4  1  0
  4  5  2  0
  6  5  1  0
  7  2  1  0
  8  7  1  0
  9  8  1  0
 10 11  1  0
 10  9  1  0
 11 12  1  0
 12  7  1  0
 13 18  2  0
 14 15  2  0
 14 13  1  0
 15 16  1  0
 16 17  2  0
 18 17  1  0
  1 19  1  0
  5 20  1  0
  8 21  1  0
  8 22  1  0
  9 23  1  0
  9 24  1  0
 10 25  1  0
 11 26  1  0
 11 27  1  0
 12 28  1  0
 12 29  1  0
 14 30  1  0
 15 31  1  0
 16 32  1  0
 17 33  1  0
 18 34  1  0
M  ISO  8  19  14  20  14  21  13  22  13  23  13  24  13  25   5  26  13
M  ISO  8  27  13  28  13  29  13  30  14  31  14  32  14  33  14  34  14
M  END
>  <minimizedAffinity>  (1) 
-5.17470741

>  <minimizedRMSD>  (1) 
3.49834633

$$$$
