
     RDKit          3D

 32 34  0  0  0  0  0  0  0  0999 V2000
   45.3130   36.0510   43.3490 C   0  0  0  0  0  0  0  0  0  0  0  0
   46.0990   34.9120   43.2040 C   0  0  0  0  0  0  0  0  0  0  0  0
   46.0940   34.0000   44.2280 C   0  0  0  0  0  0  0  0  0  0  0  0
   45.3310   34.2420   45.3420 N   0  0  0  0  0  0  0  0  0  0  0  0
   44.5830   35.3560   45.4490 C   0  0  0  0  0  0  0  0  0  0  0  0
   44.5800   36.2430   44.4610 N   0  0  0  0  0  0  0  0  0  0  0  0
   46.8860   34.7820   42.0510 N   0  0  0  0  0  0  0  0  0  0  0  0
   48.2170   35.2470   41.9830 C   0  0  0  0  0  0  0  0  0  0  0  0
   48.7040   35.3070   40.5220 C   0  0  0  0  0  0  0  0  0  0  0  0
   48.6340   33.9770   39.9990 N   0  0  0  0  0  0  0  0  0  0  0  0
   47.4000   33.2970   40.1750 C   0  0  0  0  0  0  0  0  0  0  0  0
   46.3820   34.1820   40.8160 C   0  0  0  0  0  0  0  0  0  0  0  0
   46.7770   32.7630   44.3740 C   0  0  0  0  0  0  0  0  0  0  0  0
   47.5720   31.9350   43.5890 C   0  0  0  0  0  0  0  0  0  0  0  0
   48.1710   30.7640   43.9710 C   0  0  0  0  0  0  0  0  0  0  0  0
   47.9850   30.3480   45.2320 N   0  0  0  0  0  0  0  0  0  0  0  0
   47.2280   31.1040   46.0370 C   0  0  0  0  0  0  0  0  0  0  0  0
   46.6640   32.2280   45.6390 N   0  0  0  0  0  0  0  0  0  0  0  0
   45.2906   36.8025   42.5460 H   0  0  0  0  0  0  0  0  0  0  0  0
   43.9773   35.5306   46.3504 H   0  0  0  0  0  0  0  0  0  0  0  0
   48.2696   36.2543   42.4219 H   0  0  0  0  0  0  0  0  0  0  0  0
   48.8615   34.5513   42.5403 H   0  0  0  0  0  0  0  0  0  0  0  0
   48.0576   35.9771   39.9362 H   0  0  0  0  0  0  0  0  0  0  0  0
   49.7320   35.6947   40.4681 H   0  0  0  0  0  0  0  0  0  0  0  0
   49.3680   33.4197   40.4589 H   0  0  0  0  0  0  0  0  0  0  0  0
   47.0258   32.9726   39.1928 H   0  0  0  0  0  0  0  0  0  0  0  0
   47.5704   32.4304   40.8308 H   0  0  0  0  0  0  0  0  0  0  0  0
   46.1147   34.9848   40.1131 H   0  0  0  0  0  0  0  0  0  0  0  0
   45.5042   33.5684   41.0668 H   0  0  0  0  0  0  0  0  0  0  0  0
   47.7376   32.2548   42.5496 H   0  0  0  0  0  0  0  0  0  0  0  0
   48.7847   30.1837   43.2662 H   0  0  0  0  0  0  0  0  0  0  0  0
   47.0697   30.7738   47.0742 H   0  0  0  0  0  0  0  0  0  0  0  0
  1  6  2  0
  2  1  1  0
  2  3  2  0
  3 13  1  0
  3  4  1  0
  4  5  2  0
  6  5  1  0
  7  2  1  0
  8  7  1  0
  9  8  1  0
 10 11  1  0
 10  9  1  0
 11 12  1  0
 12  7  1  0
 13 18  2  0
 14 15  2  0
 14 13  1  0
 15 16  1  0
 16 17  2  0
 18 17  1  0
  1 19  1  0
  5 20  1  0
  8 21  1  0
  8 22  1  0
  9 23  1  0
  9 24  1  0
 10 25  1  0
 11 26  1  0
 11 27  1  0
 12 28  1  0
 12 29  1  0
 14 30  1  0
 15 31  1  0
 17 32  1  0
M  ISO  8  19  14  20  14  21  13  22  13  23  13  24  13  25   5  26  13
M  ISO  6  27  13  28  13  29  13  30  14  31  14  32  14
M  END
>  <minimizedAffinity>  (1) 
-4.96621323

>  <minimizedRMSD>  (1) 
3.41381216

$$$$
