
     RDKit          3D

 39 41  0  0  0  0  0  0  0  0999 V2000
   45.3120   36.0880   43.3300 C   0  0  0  0  0  0  0  0  0  0  0  0
   46.0770   34.9560   43.1250 C   0  0  0  0  0  0  0  0  0  0  0  0
   46.0680   34.0220   44.1320 C   0  0  0  0  0  0  0  0  0  0  0  0
   45.3510   34.1870   45.2690 N   0  0  0  0  0  0  0  0  0  0  0  0
   44.6030   35.3260   45.4340 C   0  0  0  0  0  0  0  0  0  0  0  0
   44.6040   36.2330   44.4730 N   0  0  0  0  0  0  0  0  0  0  0  0
   46.7980   34.8360   41.9280 N   0  0  0  0  0  0  0  0  0  0  0  0
   48.0740   35.4270   41.8130 C   0  0  0  0  0  0  0  0  0  0  0  0
   48.7260   35.2110   40.4770 C   0  0  0  0  0  0  0  0  0  0  0  0
   48.5590   33.9040   39.9520 N   0  0  0  0  0  0  0  0  0  0  0  0
   47.3300   33.2780   40.1450 C   0  0  0  0  0  0  0  0  0  0  0  0
   46.3050   34.1670   40.7540 C   0  0  0  0  0  0  0  0  0  0  0  0
   46.7360   32.8020   44.2970 N   0  0  0  0  0  0  0  0  0  0  0  0
   47.8680   32.0320   43.7550 C   0  0  0  0  0  0  0  0  0  0  0  0
   47.7270   30.5650   43.9200 C   0  0  0  0  0  0  0  0  0  0  0  0
   47.8100   30.2070   45.3970 C   0  0  0  0  0  0  0  0  0  0  0  0
   47.1840   31.3140   46.2240 C   0  0  0  0  0  0  0  0  0  0  0  0
   46.1290   32.0560   45.3900 C   0  0  0  0  0  0  0  0  0  0  0  0
   45.2787   36.8739   42.5610 H   0  0  0  0  0  0  0  0  0  0  0  0
   44.0134   35.4810   46.3496 H   0  0  0  0  0  0  0  0  0  0  0  0
   47.9704   36.5098   41.9769 H   0  0  0  0  0  0  0  0  0  0  0  0
   48.7178   34.9462   42.5642 H   0  0  0  0  0  0  0  0  0  0  0  0
   48.2939   35.9273   39.7627 H   0  0  0  0  0  0  0  0  0  0  0  0
   49.8062   35.3557   40.6259 H   0  0  0  0  0  0  0  0  0  0  0  0
   49.2790   33.3061   40.3820 H   0  0  0  0  0  0  0  0  0  0  0  0
   46.9572   32.9328   39.1694 H   0  0  0  0  0  0  0  0  0  0  0  0
   47.4953   32.4453   40.8444 H   0  0  0  0  0  0  0  0  0  0  0  0
   46.0066   34.9237   40.0135 H   0  0  0  0  0  0  0  0  0  0  0  0
   45.4501   33.5430   41.0535 H   0  0  0  0  0  0  0  0  0  0  0  0
   48.7847   32.3527   44.2716 H   0  0  0  0  0  0  0  0  0  0  0  0
   47.9028   32.2311   42.6737 H   0  0  0  0  0  0  0  0  0  0  0  0
   46.7543   30.2434   43.5195 H   0  0  0  0  0  0  0  0  0  0  0  0
   48.5360   30.0567   43.3749 H   0  0  0  0  0  0  0  0  0  0  0  0
   47.2700   29.2656   45.5766 H   0  0  0  0  0  0  0  0  0  0  0  0
   48.8647   30.0868   45.6854 H   0  0  0  0  0  0  0  0  0  0  0  0
   46.7056   30.8787   47.1138 H   0  0  0  0  0  0  0  0  0  0  0  0
   47.9666   32.0229   46.5322 H   0  0  0  0  0  0  0  0  0  0  0  0
   45.5867   32.7564   46.0421 H   0  0  0  0  0  0  0  0  0  0  0  0
   45.4451   31.3101   44.9588 H   0  0  0  0  0  0  0  0  0  0  0  0
  1  6  2  0
  2  1  1  0
  2  3  2  0
  3 13  1  0
  3  4  1  0
  4  5  2  0
  6  5  1  0
  7  2  1  0
  8  7  1  0
  9  8  1  0
 10 11  1  0
 10  9  1  0
 11 12  1  0
 12  7  1  0
 13 18  1  0
 14 15  1  0
 14 13  1  0
 15 16  1  0
 16 17  1  0
 18 17  1  0
  1 19  1  0
  5 20  1  0
  8 21  1  0
  8 22  1  0
  9 23  1  0
  9 24  1  0
 10 25  1  0
 11 26  1  0
 11 27  1  0
 12 28  1  0
 12 29  1  0
 14 30  1  0
 14 31  1  0
 15 32  1  0
 15 33  1  0
 16 34  1  0
 16 35  1  0
 17 36  1  0
 17 37  1  0
 18 38  1  0
 18 39  1  0
M  ISO  8  19  14  20  14  21  13  22  13  23  13  24  13  25   5  26  13
M  ISO  8  27  13  28  13  29  13  30  13  31  13  32  13  33  13  34  13
M  ISO  5  35  13  36  13  37  13  38  13  39  13
M  END
>  <minimizedAffinity>  (1) 
-4.93833685

>  <minimizedRMSD>  (1) 
3.51953387

$$$$
