
     RDKit          3D

 34 36  0  0  0  0  0  0  0  0999 V2000
   45.4370   36.2240   43.2400 C   0  0  0  0  0  0  0  0  0  0  0  0
   46.1030   34.9960   43.0690 C   0  0  0  0  0  0  0  0  0  0  0  0
   45.9550   34.0300   44.0430 C   0  0  0  0  0  0  0  0  0  0  0  0
   45.1780   34.2670   45.1420 N   0  0  0  0  0  0  0  0  0  0  0  0
   44.5360   35.4730   45.2850 C   0  0  0  0  0  0  0  0  0  0  0  0
   44.6710   36.4260   44.3450 N   0  0  0  0  0  0  0  0  0  0  0  0
   46.8350   34.8320   41.8800 N   0  0  0  0  0  0  0  0  0  0  0  0
   48.1500   35.3150   41.7830 C   0  0  0  0  0  0  0  0  0  0  0  0
   48.6960   35.2150   40.3960 C   0  0  0  0  0  0  0  0  0  0  0  0
   48.4800   33.9880   39.7460 N   0  0  0  0  0  0  0  0  0  0  0  0
   47.2880   33.2950   40.0430 C   0  0  0  0  0  0  0  0  0  0  0  0
   46.2930   34.1870   40.6990 C   0  0  0  0  0  0  0  0  0  0  0  0
   44.0580   32.3380   42.6630 Cl  0  0  0  0  0  0  0  0  0  0  0  0
   45.5400   31.8040   43.4930 C   0  0  0  0  0  0  0  0  0  0  0  0
   46.4440   32.6950   44.0970 C   0  0  0  0  0  0  0  0  0  0  0  0
   47.5470   32.0340   44.6730 C   0  0  0  0  0  0  0  0  0  0  0  0
   47.6940   30.6640   44.6320 C   0  0  0  0  0  0  0  0  0  0  0  0
   46.7780   29.8640   44.0290 C   0  0  0  0  0  0  0  0  0  0  0  0
   45.6530   30.4240   43.4310 C   0  0  0  0  0  0  0  0  0  0  0  0
   45.5357   37.0164   42.4834 H   0  0  0  0  0  0  0  0  0  0  0  0
   43.9101   35.6599   46.1701 H   0  0  0  0  0  0  0  0  0  0  0  0
   48.1615   36.3709   42.0912 H   0  0  0  0  0  0  0  0  0  0  0  0
   48.7823   34.6957   42.4363 H   0  0  0  0  0  0  0  0  0  0  0  0
   48.2289   36.0057   39.7905 H   0  0  0  0  0  0  0  0  0  0  0  0
   49.7870   35.3160   40.4938 H   0  0  0  0  0  0  0  0  0  0  0  0
   49.2660   33.3679   39.9882 H   0  0  0  0  0  0  0  0  0  0  0  0
   46.8582   32.9046   39.1087 H   0  0  0  0  0  0  0  0  0  0  0  0
   47.5270   32.4736   40.7345 H   0  0  0  0  0  0  0  0  0  0  0  0
   45.9837   34.9617   39.9819 H   0  0  0  0  0  0  0  0  0  0  0  0
   45.4382   33.5695   41.0119 H   0  0  0  0  0  0  0  0  0  0  0  0
   48.3204   32.6342   45.1746 H   0  0  0  0  0  0  0  0  0  0  0  0
   48.5777   30.2065   45.1007 H   0  0  0  0  0  0  0  0  0  0  0  0
   46.9248   28.7740   44.0130 H   0  0  0  0  0  0  0  0  0  0  0  0
   44.8925   29.8033   42.9346 H   0  0  0  0  0  0  0  0  0  0  0  0
  1  6  2  0
  2  1  1  0
  2  3  2  0
  3 15  1  0
  3  4  1  0
  4  5  2  0
  6  5  1  0
  7  2  1  0
  8  7  1  0
  9  8  1  0
 10 11  1  0
 10  9  1  0
 11 12  1  0
 12  7  1  0
 13 14  1  0
 14 15  2  0
 15 16  1  0
 17 16  2  0
 18 17  1  0
 19 14  1  0
 19 18  2  0
  1 20  1  0
  5 21  1  0
  8 22  1  0
  8 23  1  0
  9 24  1  0
  9 25  1  0
 10 26  1  0
 11 27  1  0
 11 28  1  0
 12 29  1  0
 12 30  1  0
 16 31  1  0
 17 32  1  0
 18 33  1  0
 19 34  1  0
M  ISO  8  20  14  21  14  22  13  23  13  24  13  25  13  26   5  27  13
M  ISO  7  28  13  29  13  30  13  31  14  32  14  33  14  34  14
M  END
>  <minimizedAffinity>  (1) 
-4.72737408

>  <minimizedRMSD>  (1) 
3.11974645

$$$$
