
     RDKit          3D

 38 40  0  0  0  0  0  0  0  0999 V2000
   45.2490   36.2300   43.1350 C   0  0  0  0  0  0  0  0  0  0  0  0
   45.7080   34.9370   42.9580 C   0  0  0  0  0  0  0  0  0  0  0  0
   45.5730   34.0730   44.0100 C   0  0  0  0  0  0  0  0  0  0  0  0
   45.0140   34.4740   45.1750 N   0  0  0  0  0  0  0  0  0  0  0  0
   44.5700   35.7610   45.3180 C   0  0  0  0  0  0  0  0  0  0  0  0
   44.6920   36.6110   44.3090 N   0  0  0  0  0  0  0  0  0  0  0  0
   46.3030   34.5990   41.7380 N   0  0  0  0  0  0  0  0  0  0  0  0
   47.6790   34.7630   41.5340 C   0  0  0  0  0  0  0  0  0  0  0  0
   48.1750   34.4160   40.1780 C   0  0  0  0  0  0  0  0  0  0  0  0
   47.6330   33.2470   39.6290 N   0  0  0  0  0  0  0  0  0  0  0  0
   46.3440   32.8700   40.0210 C   0  0  0  0  0  0  0  0  0  0  0  0
   45.6040   34.0740   40.6010 C   0  0  0  0  0  0  0  0  0  0  0  0
   45.8730   32.7050   44.1380 N   0  0  0  0  0  0  0  0  0  0  0  0
   45.9520   31.5050   43.2820 C   0  0  0  0  0  0  0  0  0  0  0  0
   45.0700   30.4340   43.8810 C   0  0  0  0  0  0  0  0  0  0  0  0
   45.4170   30.1740   45.2410 N   0  0  0  0  0  0  0  0  0  0  0  0
   46.4670   31.0260   45.7440 C   0  0  0  0  0  0  0  0  0  0  0  0
   46.1550   32.4680   45.5540 C   0  0  0  0  0  0  0  0  0  0  0  0
   45.3374   36.9562   42.3135 H   0  0  0  0  0  0  0  0  0  0  0  0
   44.1148   36.0874   46.2647 H   0  0  0  0  0  0  0  0  0  0  0  0
   47.9254   35.8180   41.7242 H   0  0  0  0  0  0  0  0  0  0  0  0
   48.1700   34.0590   42.2220 H   0  0  0  0  0  0  0  0  0  0  0  0
   47.9366   35.2517   39.5036 H   0  0  0  0  0  0  0  0  0  0  0  0
   49.2545   34.2332   40.2838 H   0  0  0  0  0  0  0  0  0  0  0  0
   48.2659   32.4722   39.8741 H   0  0  0  0  0  0  0  0  0  0  0  0
   45.7938   32.4897   39.1477 H   0  0  0  0  0  0  0  0  0  0  0  0
   46.4139   32.0842   40.7875 H   0  0  0  0  0  0  0  0  0  0  0  0
   45.5277   34.8561   39.8313 H   0  0  0  0  0  0  0  0  0  0  0  0
   44.6013   33.7530   40.9195 H   0  0  0  0  0  0  0  0  0  0  0  0
   46.9916   31.1482   43.2372 H   0  0  0  0  0  0  0  0  0  0  0  0
   45.6164   31.7449   42.2623 H   0  0  0  0  0  0  0  0  0  0  0  0
   44.0225   30.7666   43.8362 H   0  0  0  0  0  0  0  0  0  0  0  0
   45.2103   29.5076   43.3047 H   0  0  0  0  0  0  0  0  0  0  0  0
   44.5786   30.3129   45.8229 H   0  0  0  0  0  0  0  0  0  0  0  0
   46.5991   30.8300   46.8183 H   0  0  0  0  0  0  0  0  0  0  0  0
   47.3853   30.8006   45.1820 H   0  0  0  0  0  0  0  0  0  0  0  0
   47.0158   33.0772   45.8669 H   0  0  0  0  0  0  0  0  0  0  0  0
   45.2809   32.7452   46.1615 H   0  0  0  0  0  0  0  0  0  0  0  0
  1  6  2  0
  2  1  1  0
  2  3  2  0
  3 13  1  0
  3  4  1  0
  4  5  2  0
  6  5  1  0
  7  2  1  0
  8  7  1  0
  9  8  1  0
 10 11  1  0
 10  9  1  0
 11 12  1  0
 12  7  1  0
 13 18  1  0
 14 15  1  0
 14 13  1  0
 15 16  1  0
 16 17  1  0
 18 17  1  0
  1 19  1  0
  5 20  1  0
  8 21  1  0
  8 22  1  0
  9 23  1  0
  9 24  1  0
 10 25  1  0
 11 26  1  0
 11 27  1  0
 12 28  1  0
 12 29  1  0
 14 30  1  0
 14 31  1  0
 15 32  1  0
 15 33  1  0
 16 34  1  0
 17 35  1  0
 17 36  1  0
 18 37  1  0
 18 38  1  0
M  ISO  8  19  14  20  14  21  13  22  13  23  13  24  13  25   5  26  13
M  ISO  8  27  13  28  13  29  13  30  13  31  13  32  13  33  13  34   5
M  ISO  4  35  13  36  13  37  13  38  13
M  END
>  <minimizedAffinity>  (1) 
-4.43093681

>  <minimizedRMSD>  (1) 
2.88076353

$$$$
