
     RDKit          3D

 37 40  0  0  0  0  0  0  0  0999 V2000
   45.1760   36.0300   43.4930 C   0  0  0  0  0  0  0  0  0  0  0  0
   45.9720   34.9200   43.2540 C   0  0  0  0  0  0  0  0  0  0  0  0
   46.0550   33.9890   44.2550 C   0  0  0  0  0  0  0  0  0  0  0  0
   45.3760   34.1590   45.4290 N   0  0  0  0  0  0  0  0  0  0  0  0
   44.6060   35.2630   45.6200 C   0  0  0  0  0  0  0  0  0  0  0  0
   44.5150   36.1770   44.6620 N   0  0  0  0  0  0  0  0  0  0  0  0
   46.5910   34.7940   42.0060 N   0  0  0  0  0  0  0  0  0  0  0  0
   47.8930   35.2420   41.7650 C   0  0  0  0  0  0  0  0  0  0  0  0
   48.4410   34.9070   40.3990 C   0  0  0  0  0  0  0  0  0  0  0  0
   48.1420   33.6200   39.9180 N   0  0  0  0  0  0  0  0  0  0  0  0
   46.8400   33.1610   40.1690 C   0  0  0  0  0  0  0  0  0  0  0  0
   45.9760   34.2120   40.8430 C   0  0  0  0  0  0  0  0  0  0  0  0
   46.4850   32.0230   45.5050 C   0  0  0  0  0  0  0  0  0  0  0  0
   46.7550   32.7530   44.3210 C   0  0  0  0  0  0  0  0  0  0  0  0
   47.7090   32.0820   43.5570 C   0  0  0  0  0  0  0  0  0  0  0  0
   48.3090   30.8940   43.8800 C   0  0  0  0  0  0  0  0  0  0  0  0
   47.9780   30.2650   45.0530 C   0  0  0  0  0  0  0  0  0  0  0  0
   47.0580   30.8190   45.8890 C   0  0  0  0  0  0  0  0  0  0  0  0
   48.7470   29.1150   45.0730 O   0  0  0  0  0  0  0  0  0  0  0  0
   49.5540   29.0450   43.9140 C   0  0  0  0  0  0  0  0  0  0  0  0
   49.2580   30.2020   43.1440 O   0  0  0  0  0  0  0  0  0  0  0  0
   45.0811   36.8042   42.7174 H   0  0  0  0  0  0  0  0  0  0  0  0
   44.0602   35.3983   46.5654 H   0  0  0  0  0  0  0  0  0  0  0  0
   47.9036   36.3361   41.8779 H   0  0  0  0  0  0  0  0  0  0  0  0
   48.5360   34.7215   42.4900 H   0  0  0  0  0  0  0  0  0  0  0  0
   48.0344   35.6373   39.6839 H   0  0  0  0  0  0  0  0  0  0  0  0
   49.5358   34.9411   40.5000 H   0  0  0  0  0  0  0  0  0  0  0  0
   48.7998   32.9587   40.3549 H   0  0  0  0  0  0  0  0  0  0  0  0
   46.3738   32.8804   39.2130 H   0  0  0  0  0  0  0  0  0  0  0  0
   46.9132   32.2999   40.8496 H   0  0  0  0  0  0  0  0  0  0  0  0
   45.7720   35.0136   40.1179 H   0  0  0  0  0  0  0  0  0  0  0  0
   45.0554   33.7113   41.1774 H   0  0  0  0  0  0  0  0  0  0  0  0
   45.7432   32.4563   46.1920 H   0  0  0  0  0  0  0  0  0  0  0  0
   48.0072   32.5500   42.6072 H   0  0  0  0  0  0  0  0  0  0  0  0
   46.7790   30.3304   46.8342 H   0  0  0  0  0  0  0  0  0  0  0  0
   50.6182   29.0361   44.1922 H   0  0  0  0  0  0  0  0  0  0  0  0
   49.3517   28.1262   43.3441 H   0  0  0  0  0  0  0  0  0  0  0  0
  1  6  2  0
  2  1  1  0
  2  3  2  0
  3 14  1  0
  3  4  1  0
  4  5  2  0
  6  5  1  0
  7  2  1  0
  8  7  1  0
  9  8  1  0
 10 11  1  0
 10  9  1  0
 11 12  1  0
 12  7  1  0
 13 18  2  0
 14 13  1  0
 15 16  1  0
 15 14  2  0
 16 17  2  0
 17 19  1  0
 17 18  1  0
 20 19  1  0
 21 16  1  0
 21 20  1  0
  1 22  1  0
  5 23  1  0
  8 24  1  0
  8 25  1  0
  9 26  1  0
  9 27  1  0
 10 28  1  0
 11 29  1  0
 11 30  1  0
 12 31  1  0
 12 32  1  0
 13 33  1  0
 15 34  1  0
 18 35  1  0
 20 36  1  0
 20 37  1  0
M  ISO  8  22  14  23  14  24  13  25  13  26  13  27  13  28   5  29  13
M  ISO  8  30  13  31  13  32  13  33  14  34  14  35  14  36  13  37  13
M  END
>  <minimizedAffinity>  (1) 
-5.07576942

>  <minimizedRMSD>  (1) 
3.65110302

$$$$
