
     RDKit          3D

 29 31  0  0  0  0  0  0  0  0999 V2000
   44.9510   33.0410   41.1340 Cl  0  0  0  0  0  0  0  0  0  0  0  0
   46.4410   33.9380   40.9280 C   0  0  0  0  0  0  0  0  0  0  0  0
   46.9120   34.7540   41.9310 C   0  0  0  0  0  0  0  0  0  0  0  0
   48.0920   35.4770   41.8050 C   0  0  0  0  0  0  0  0  0  0  0  0
   48.7630   35.3260   40.6140 C   0  0  0  0  0  0  0  0  0  0  0  0
   48.3050   34.5200   39.6150 C   0  0  0  0  0  0  0  0  0  0  0  0
   47.1510   33.8220   39.7530 C   0  0  0  0  0  0  0  0  0  0  0  0
   45.6260   34.0300   45.3090 C   0  0  0  0  0  0  0  0  0  0  0  0
   44.7030   35.0870   45.5110 C   0  0  0  0  0  0  0  0  0  0  0  0
   44.5410   36.0240   44.4910 C   0  0  0  0  0  0  0  0  0  0  0  0
   45.2750   35.8700   43.3630 N   0  0  0  0  0  0  0  0  0  0  0  0
   46.1480   34.8650   43.1790 C   0  0  0  0  0  0  0  0  0  0  0  0
   46.3210   33.9390   44.1630 N   0  0  0  0  0  0  0  0  0  0  0  0
   46.6100   32.9470   38.7210 C   0  0  0  0  0  0  0  0  0  0  0  0
   46.9450   31.6190   38.5790 C   0  0  0  0  0  0  0  0  0  0  0  0
   46.4330   30.7910   37.6030 C   0  0  0  0  0  0  0  0  0  0  0  0
   45.5350   31.2790   36.7030 C   0  0  0  0  0  0  0  0  0  0  0  0
   45.1960   32.5980   36.8390 C   0  0  0  0  0  0  0  0  0  0  0  0
   45.7150   33.3780   37.8020 N   0  0  0  0  0  0  0  0  0  0  0  0
   48.4661   36.1294   42.6078 H   0  0  0  0  0  0  0  0  0  0  0  0
   49.7036   35.8758   40.4622 H   0  0  0  0  0  0  0  0  0  0  0  0
   48.8809   34.4344   38.6817 H   0  0  0  0  0  0  0  0  0  0  0  0
   45.7744   33.2777   46.0977 H   0  0  0  0  0  0  0  0  0  0  0  0
   44.1303   35.1658   46.4468 H   0  0  0  0  0  0  0  0  0  0  0  0
   43.8381   36.8632   44.5992 H   0  0  0  0  0  0  0  0  0  0  0  0
   47.6674   31.1914   39.2899 H   0  0  0  0  0  0  0  0  0  0  0  0
   46.7490   29.7386   37.5513 H   0  0  0  0  0  0  0  0  0  0  0  0
   45.1059   30.6481   35.9107 H   0  0  0  0  0  0  0  0  0  0  0  0
   44.4728   33.0351   36.1347 H   0  0  0  0  0  0  0  0  0  0  0  0
  2  1  1  0
  2  3  2  0
  3 12  1  0
  4  3  1  0
  5  4  2  0
  6  7  2  0
  6  5  1  0
  7  2  1  0
  8  9  2  0
 10  9  1  0
 11 10  2  0
 12 11  1  0
 12 13  2  0
 13  8  1  0
 14  7  1  0
 15 14  2  0
 16 15  1  0
 17 18  1  0
 17 16  2  0
 18 19  2  0
 19 14  1  0
  4 20  1  0
  5 21  1  0
  6 22  1  0
  8 23  1  0
  9 24  1  0
 10 25  1  0
 15 26  1  0
 16 27  1  0
 17 28  1  0
 18 29  1  0
M  ISO  8  20  14  21  14  22  14  23  14  24  14  25  14  26  14  27  14
M  ISO  2  28  14  29  14
M  END
>  <minimizedAffinity>  (1) 
-5.40167856

>  <minimizedRMSD>  (1) 
0.376649797

$$$$
