
     RDKit          3D

 51 56  0  0  1  0  0  0  0  0999 V2000
   46.8420   31.9310   45.3750 C   0  0  0  0  0  0  0  0  0  0  0  0
   46.9520   32.6400   44.1570 C   0  0  0  0  0  0  0  0  0  0  0  0
   47.8280   32.0020   43.2970 C   0  0  0  0  0  0  0  0  0  0  0  0
   48.5100   30.8510   43.5560 C   0  0  0  0  0  0  0  0  0  0  0  0
   48.3440   30.2300   44.7760 C   0  0  0  0  0  0  0  0  0  0  0  0
   47.5050   30.7650   45.6970 C   0  0  0  0  0  0  0  0  0  0  0  0
   49.1680   29.1160   44.7160 O   0  0  0  0  0  0  0  0  0  0  0  0
   49.7190   28.9840   43.4310 C   0  0  1  0  0  0  0  0  0  0  0  0
   49.3920   30.1800   42.7180 O   0  0  0  0  0  0  0  0  0  0  0  0
   51.8290   28.0150   42.6160 C   0  0  0  0  0  0  0  0  0  0  0  0
   51.2010   28.9100   43.4560 C   0  0  0  0  0  0  0  0  0  0  0  0
   51.9610   29.7200   44.3060 C   0  0  0  0  0  0  0  0  0  0  0  0
   53.3350   29.6160   44.2960 C   0  0  0  0  0  0  0  0  0  0  0  0
   54.2380   30.2940   45.0250 N   0  0  0  0  0  0  0  0  0  0  0  0
   55.4540   29.8470   44.6660 C   0  0  0  0  0  0  0  0  0  0  0  0
   55.3180   28.8610   43.6840 C   0  0  0  0  0  0  0  0  0  0  0  0
   53.9730   28.7230   43.4590 C   0  0  0  0  0  0  0  0  0  0  0  0
   53.1970   27.9440   42.6370 C   0  0  0  0  0  0  0  0  0  0  0  0
   45.2540   35.9060   43.5100 C   0  0  0  0  0  0  0  0  0  0  0  0
   46.0790   34.8300   43.2070 C   0  0  0  0  0  0  0  0  0  0  0  0
   46.2070   33.8350   44.1390 C   0  0  0  0  0  0  0  0  0  0  0  0
   45.5230   33.9460   45.3210 N   0  0  0  0  0  0  0  0  0  0  0  0
   44.7300   35.0020   45.5890 C   0  0  0  0  0  0  0  0  0  0  0  0
   44.6010   35.9670   44.6890 N   0  0  0  0  0  0  0  0  0  0  0  0
   46.7400   34.8350   41.9820 N   0  0  0  0  0  0  0  0  0  0  0  0
   48.0230   35.4010   41.8050 C   0  0  0  0  0  0  0  0  0  0  0  0
   48.6340   35.1670   40.4420 C   0  0  0  0  0  0  0  0  0  0  0  0
   48.4310   33.8990   39.8880 N   0  0  0  0  0  0  0  0  0  0  0  0
   47.1580   33.3410   40.0660 C   0  0  0  0  0  0  0  0  0  0  0  0
   46.2160   34.2900   40.7770 C   0  0  0  0  0  0  0  0  0  0  0  0
   46.1655   32.3474   46.1359 H   0  0  0  0  0  0  0  0  0  0  0  0
   47.9889   32.4668   42.3131 H   0  0  0  0  0  0  0  0  0  0  0  0
   47.3571   30.2824   46.6743 H   0  0  0  0  0  0  0  0  0  0  0  0
   49.3239   28.0630   42.9776 H   0  0  0  0  0  0  0  0  0  0  0  0
   51.2437   27.3713   41.9429 H   0  0  0  0  0  0  0  0  0  0  0  0
   51.4650   30.4356   44.9783 H   0  0  0  0  0  0  0  0  0  0  0  0
   54.0362   31.0200   45.7272 H   0  0  0  0  0  0  0  0  0  0  0  0
   56.4088   30.2022   45.0809 H   0  0  0  0  0  0  0  0  0  0  0  0
   56.1293   28.3062   43.1901 H   0  0  0  0  0  0  0  0  0  0  0  0
   53.6962   27.2306   41.9648 H   0  0  0  0  0  0  0  0  0  0  0  0
   45.1316   36.7188   42.7790 H   0  0  0  0  0  0  0  0  0  0  0  0
   44.1936   35.0630   46.5474 H   0  0  0  0  0  0  0  0  0  0  0  0
   47.9434   36.4867   41.9630 H   0  0  0  0  0  0  0  0  0  0  0  0
   48.6841   34.9054   42.5312 H   0  0  0  0  0  0  0  0  0  0  0  0
   48.2076   35.9085   39.7504 H   0  0  0  0  0  0  0  0  0  0  0  0
   49.7209   35.2572   40.5851 H   0  0  0  0  0  0  0  0  0  0  0  0
   49.1168   33.2579   40.3116 H   0  0  0  0  0  0  0  0  0  0  0  0
   46.7370   33.0955   39.0799 H   0  0  0  0  0  0  0  0  0  0  0  0
   47.2662   32.4405   40.6884 H   0  0  0  0  0  0  0  0  0  0  0  0
   45.9830   35.1209   40.0948 H   0  0  0  0  0  0  0  0  0  0  0  0
   45.3265   33.7052   41.0541 H   0  0  0  0  0  0  0  0  0  0  0  0
  1  6  2  0
  2  1  1  0
  3  4  1  0
  3  2  2  0
  4  5  2  0
  5  6  1  0
  7  5  1  0
  8 11  1  0
  8  7  1  0
  9  8  1  0
  9  4  1  0
 10 18  2  0
 10 11  1  0
 11 12  2  0
 13 12  1  0
 13 14  1  0
 15 14  1  0
 16 15  2  0
 17 16  1  0
 17 13  2  0
 18 17  1  0
 19 24  2  0
 20 19  1  0
 20 21  2  0
 21  2  1  0
 21 22  1  0
 22 23  2  0
 24 23  1  0
 25 20  1  0
 26 25  1  0
 27 26  1  0
 28 29  1  0
 28 27  1  0
 29 30  1  0
 30 25  1  0
  1 31  1  0
  3 32  1  0
  6 33  1  0
  8 34  1  6
 10 35  1  0
 12 36  1  0
 14 37  1  0
 15 38  1  0
 16 39  1  0
 18 40  1  0
 19 41  1  0
 23 42  1  0
 26 43  1  0
 26 44  1  0
 27 45  1  0
 27 46  1  0
 28 47  1  0
 29 48  1  0
 29 49  1  0
 30 50  1  0
 30 51  1  0
M  ISO  8  31  14  32  14  33  14  34  13  35  14  36  14  37   9  38  14
M  ISO  8  39  14  40  14  41  14  42  14  43  13  44  13  45  13  46  13
M  ISO  5  47   5  48  13  49  13  50  13  51  13
M  END
>  <minimizedAffinity>  (1) 
-5.87520313

>  <minimizedRMSD>  (1) 
0.584589899

$$$$
