
     RDKit          3D

 54 58  0  0  1  0  0  0  0  0999 V2000
   46.7530   31.9670   45.3770 C   0  0  0  0  0  0  0  0  0  0  0  0
   46.9460   32.6960   44.1800 C   0  0  0  0  0  0  0  0  0  0  0  0
   47.8780   32.0580   43.3830 C   0  0  0  0  0  0  0  0  0  0  0  0
   48.5370   30.9060   43.6650 C   0  0  0  0  0  0  0  0  0  0  0  0
   48.2910   30.2670   44.8540 C   0  0  0  0  0  0  0  0  0  0  0  0
   47.3870   30.7960   45.7280 C   0  0  0  0  0  0  0  0  0  0  0  0
   49.1110   29.1530   44.8420 O   0  0  0  0  0  0  0  0  0  0  0  0
   49.9460   29.1780   43.6900 C   0  0  1  0  0  0  0  0  0  0  0  0
   49.4710   30.2480   42.8750 O   0  0  0  0  0  0  0  0  0  0  0  0
   45.2510   35.9400   43.4410 C   0  0  0  0  0  0  0  0  0  0  0  0
   46.0850   34.8600   43.1720 C   0  0  0  0  0  0  0  0  0  0  0  0
   46.2030   33.8890   44.1310 C   0  0  0  0  0  0  0  0  0  0  0  0
   45.5020   34.0220   45.3010 N   0  0  0  0  0  0  0  0  0  0  0  0
   44.7020   35.0800   45.5340 C   0  0  0  0  0  0  0  0  0  0  0  0
   44.5800   36.0210   44.6180 N   0  0  0  0  0  0  0  0  0  0  0  0
   46.7600   34.8390   41.9570 N   0  0  0  0  0  0  0  0  0  0  0  0
   48.0360   35.4180   41.7790 C   0  0  0  0  0  0  0  0  0  0  0  0
   48.6730   35.1550   40.4350 C   0  0  0  0  0  0  0  0  0  0  0  0
   48.4870   33.8610   39.9110 N   0  0  0  0  0  0  0  0  0  0  0  0
   47.2150   33.2950   40.0860 C   0  0  0  0  0  0  0  0  0  0  0  0
   46.2570   34.2550   40.7610 C   0  0  0  0  0  0  0  0  0  0  0  0
   52.3680   29.2410   43.0480 C   0  0  2  0  0  0  0  0  0  0  0  0
   51.3370   29.5720   44.1010 C   0  0  2  0  0  0  0  0  0  0  0  0
   51.6730   28.8300   45.2330 O   0  0  0  0  0  0  0  0  0  0  0  0
   52.6760   29.5170   45.8870 C   0  0  0  0  0  0  0  0  0  0  0  0
   53.8250   29.8600   44.9940 C   0  0  2  0  0  0  0  0  0  0  0  0
   53.7560   29.2420   43.6170 C   0  0  2  0  0  0  0  0  0  0  0  0
   52.2370   30.0500   41.9100 O   0  0  0  0  0  0  0  0  0  0  0  0
   55.0050   29.4200   45.5910 O   0  0  0  0  0  0  0  0  0  0  0  0
   54.5340   30.0850   42.7950 O   0  0  0  0  0  0  0  0  0  0  0  0
   46.0271   32.3745   46.0961 H   0  0  0  0  0  0  0  0  0  0  0  0
   48.1097   32.5343   42.4189 H   0  0  0  0  0  0  0  0  0  0  0  0
   47.1706   30.3011   46.6862 H   0  0  0  0  0  0  0  0  0  0  0  0
   49.9404   28.1998   43.1868 H   0  0  0  0  0  0  0  0  0  0  0  0
   45.1340   36.7370   42.6919 H   0  0  0  0  0  0  0  0  0  0  0  0
   44.1529   35.1590   46.4839 H   0  0  0  0  0  0  0  0  0  0  0  0
   47.9374   36.5065   41.9030 H   0  0  0  0  0  0  0  0  0  0  0  0
   48.6931   34.9516   42.5278 H   0  0  0  0  0  0  0  0  0  0  0  0
   48.2530   35.8738   39.7160 H   0  0  0  0  0  0  0  0  0  0  0  0
   49.7566   35.2606   40.5923 H   0  0  0  0  0  0  0  0  0  0  0  0
   49.1721   33.2384   40.3626 H   0  0  0  0  0  0  0  0  0  0  0  0
   46.8090   33.0214   39.1009 H   0  0  0  0  0  0  0  0  0  0  0  0
   47.3216   32.4103   40.7309 H   0  0  0  0  0  0  0  0  0  0  0  0
   46.0247   35.0645   40.0534 H   0  0  0  0  0  0  0  0  0  0  0  0
   45.3708   33.6685   41.0450 H   0  0  0  0  0  0  0  0  0  0  0  0
   52.1755   28.2133   42.7062 H   0  0  0  0  0  0  0  0  0  0  0  0
   51.3391   30.6587   44.2714 H   0  0  0  0  0  0  0  0  0  0  0  0
   52.2560   30.4494   46.2922 H   0  0  0  0  0  0  0  0  0  0  0  0
   53.0606   28.8613   46.6821 H   0  0  0  0  0  0  0  0  0  0  0  0
   53.7878   30.9516   44.8633 H   0  0  0  0  0  0  0  0  0  0  0  0
   54.0970   28.1975   43.6693 H   0  0  0  0  0  0  0  0  0  0  0  0
   52.0851   30.9880   42.1877 H   0  0  0  0  0  0  0  0  0  0  0  0
   54.9098   29.4555   46.5758 H   0  0  0  0  0  0  0  0  0  0  0  0
   55.0846   30.6816   43.3615 H   0  0  0  0  0  0  0  0  0  0  0  0
  1  6  2  0
  2  1  1  0
  3  4  1  0
  3  2  2  0
  4  5  2  0
  5  6  1  0
  7  5  1  0
  8 23  1  0
  8  7  1  0
  9  4  1  0
  9  8  1  0
 10 15  2  0
 11 10  1  0
 11 12  2  0
 12  2  1  0
 12 13  1  0
 13 14  2  0
 15 14  1  0
 16 11  1  0
 17 16  1  0
 18 17  1  0
 19 20  1  0
 19 18  1  0
 20 21  1  0
 21 16  1  0
 22 28  1  0
 22 27  1  0
 22 23  1  0
 23 24  1  0
 24 25  1  0
 26 29  1  0
 26 25  1  0
 27 30  1  0
 27 26  1  0
  1 31  1  0
  3 32  1  0
  6 33  1  0
  8 34  1  6
 10 35  1  0
 14 36  1  0
 17 37  1  0
 17 38  1  0
 18 39  1  0
 18 40  1  0
 19 41  1  0
 20 42  1  0
 20 43  1  0
 21 44  1  0
 21 45  1  0
 22 46  1  6
 23 47  1  1
 25 48  1  0
 25 49  1  0
 26 50  1  6
 27 51  1  1
 28 52  1  0
 29 53  1  0
 30 54  1  0
M  ISO  8  31  14  32  14  33  14  34  13  35  14  36  14  37  13  38  13
M  ISO  8  39  13  40  13  41   5  42  13  43  13  44  13  45  13  46  13
M  ISO  8  47  13  48  13  49  13  50  13  51  13  52   3  53   3  54   3
M  END
>  <minimizedAffinity>  (1) 
-5.81975031

>  <minimizedRMSD>  (1) 
0.531835079

$$$$
