
     RDKit          3D

 49 53  0  0  1  0  0  0  0  0999 V2000
   46.4010   32.0130   45.4790 C   0  0  0  0  0  0  0  0  0  0  0  0
   46.7730   32.7820   44.3460 C   0  0  0  0  0  0  0  0  0  0  0  0
   47.7630   32.1320   43.6240 C   0  0  0  0  0  0  0  0  0  0  0  0
   48.3350   30.9260   43.9110 C   0  0  0  0  0  0  0  0  0  0  0  0
   47.9160   30.2540   45.0170 C   0  0  0  0  0  0  0  0  0  0  0  0
   46.9450   30.7910   45.8150 C   0  0  0  0  0  0  0  0  0  0  0  0
   48.6590   29.0890   45.0390 O   0  0  0  0  0  0  0  0  0  0  0  0
   49.6130   29.1060   44.0070 C   0  0  1  0  0  0  0  0  0  0  0  0
   49.3200   30.2480   43.2250 O   0  0  0  0  0  0  0  0  0  0  0  0
   45.1810   36.0470   43.4400 C   0  0  0  0  0  0  0  0  0  0  0  0
   45.9670   34.9130   43.2270 C   0  0  0  0  0  0  0  0  0  0  0  0
   46.0520   33.9850   44.2200 C   0  0  0  0  0  0  0  0  0  0  0  0
   45.3660   34.2070   45.3560 N   0  0  0  0  0  0  0  0  0  0  0  0
   44.6070   35.2990   45.5630 C   0  0  0  0  0  0  0  0  0  0  0  0
   44.5220   36.2050   44.6120 N   0  0  0  0  0  0  0  0  0  0  0  0
   46.5760   34.7700   41.9680 N   0  0  0  0  0  0  0  0  0  0  0  0
   47.8540   35.1910   41.6710 C   0  0  0  0  0  0  0  0  0  0  0  0
   48.3560   34.7980   40.2980 C   0  0  0  0  0  0  0  0  0  0  0  0
   47.9990   33.5160   39.8780 N   0  0  0  0  0  0  0  0  0  0  0  0
   46.7020   33.0760   40.1550 C   0  0  0  0  0  0  0  0  0  0  0  0
   45.8980   34.1570   40.8380 C   0  0  0  0  0  0  0  0  0  0  0  0
   52.0470   29.5290   43.6780 C   0  0  0  0  0  0  0  0  0  0  0  0
   51.0000   29.2250   44.5110 C   0  0  0  0  0  0  0  0  0  0  0  0
   51.2430   29.0220   45.8640 C   0  0  0  0  0  0  0  0  0  0  0  0
   52.5370   29.1340   46.3230 C   0  0  0  0  0  0  0  0  0  0  0  0
   53.6090   29.4390   45.5120 C   0  0  0  0  0  0  0  0  0  0  0  0
   53.3450   29.6350   44.1780 C   0  0  0  0  0  0  0  0  0  0  0  0
   51.8500   29.7400   42.3190 O   0  0  0  0  0  0  0  0  0  0  0  0
   54.3930   29.9460   43.3100 O   0  0  0  0  0  0  0  0  0  0  0  0
   45.6210   32.4218   46.1381 H   0  0  0  0  0  0  0  0  0  0  0  0
   48.1272   32.6443   42.7213 H   0  0  0  0  0  0  0  0  0  0  0  0
   46.6021   30.2559   46.7129 H   0  0  0  0  0  0  0  0  0  0  0  0
   49.5581   28.1623   43.4444 H   0  0  0  0  0  0  0  0  0  0  0  0
   45.0971   36.8128   42.6548 H   0  0  0  0  0  0  0  0  0  0  0  0
   44.0664   35.4322   46.5117 H   0  0  0  0  0  0  0  0  0  0  0  0
   47.8762   36.2886   41.7408 H   0  0  0  0  0  0  0  0  0  0  0  0
   48.5167   34.6929   42.3940 H   0  0  0  0  0  0  0  0  0  0  0  0
   47.9545   35.5184   39.5701 H   0  0  0  0  0  0  0  0  0  0  0  0
   49.4541   34.8028   40.3622 H   0  0  0  0  0  0  0  0  0  0  0  0
   48.6496   32.8543   40.3249 H   0  0  0  0  0  0  0  0  0  0  0  0
   46.2066   32.8005   39.2123 H   0  0  0  0  0  0  0  0  0  0  0  0
   46.7627   32.2070   40.8267 H   0  0  0  0  0  0  0  0  0  0  0  0
   45.6757   34.9419   40.1001 H   0  0  0  0  0  0  0  0  0  0  0  0
   44.9893   33.6784   41.2321 H   0  0  0  0  0  0  0  0  0  0  0  0
   50.4209   28.7775   46.5528 H   0  0  0  0  0  0  0  0  0  0  0  0
   52.7249   28.9713   47.3945 H   0  0  0  0  0  0  0  0  0  0  0  0
   54.6294   29.5217   45.9145 H   0  0  0  0  0  0  0  0  0  0  0  0
   50.9404   29.6718   41.9342 H   0  0  0  0  0  0  0  0  0  0  0  0
   55.3169   30.0230   43.6571 H   0  0  0  0  0  0  0  0  0  0  0  0
  1  6  2  0
  2  1  1  0
  3  4  1  0
  3  2  2  0
  4  5  2  0
  5  7  1  0
  5  6  1  0
  8 23  1  0
  8  7  1  0
  9  4  1  0
  9  8  1  0
 10 15  2  0
 11 10  1  0
 11 12  2  0
 12  2  1  0
 12 13  1  0
 13 14  2  0
 15 14  1  0
 16 11  1  0
 17 16  1  0
 18 17  1  0
 19 20  1  0
 19 18  1  0
 20 21  1  0
 21 16  1  0
 22 27  2  0
 22 23  1  0
 23 24  2  0
 24 25  1  0
 26 25  2  0
 27 26  1  0
 28 22  1  0
 29 27  1  0
  1 30  1  0
  3 31  1  0
  6 32  1  0
  8 33  1  6
 10 34  1  0
 14 35  1  0
 17 36  1  0
 17 37  1  0
 18 38  1  0
 18 39  1  0
 19 40  1  0
 20 41  1  0
 20 42  1  0
 21 43  1  0
 21 44  1  0
 24 45  1  0
 25 46  1  0
 26 47  1  0
 28 48  1  0
 29 49  1  0
M  ISO  8  30  14  31  14  32  14  33  13  34  14  35  14  36  13  37  13
M  ISO  8  38  13  39  13  40   5  41  13  42  13  43  13  44  13  45  14
M  ISO  4  46  14  47  14  48   3  49   3
M  END
>  <minimizedAffinity>  (1) 
-5.81028843

>  <minimizedRMSD>  (1) 
0.247900963

$$$$
