
     RDKit          3D

 45 49  0  0  1  0  0  0  0  0999 V2000
   45.2300   36.0120   43.4760 C   0  0  0  0  0  0  0  0  0  0  0  0
   46.0500   34.9180   43.2330 C   0  0  0  0  0  0  0  0  0  0  0  0
   46.1380   33.9460   44.1940 C   0  0  0  0  0  0  0  0  0  0  0  0
   45.4180   34.0930   45.3500 N   0  0  0  0  0  0  0  0  0  0  0  0
   44.6290   35.1640   45.5610 C   0  0  0  0  0  0  0  0  0  0  0  0
   44.5380   36.1080   44.6350 N   0  0  0  0  0  0  0  0  0  0  0  0
   46.7580   34.8850   42.0300 N   0  0  0  0  0  0  0  0  0  0  0  0
   48.0370   35.4670   41.8810 C   0  0  0  0  0  0  0  0  0  0  0  0
   48.7110   35.1960   40.5610 C   0  0  0  0  0  0  0  0  0  0  0  0
   48.5520   33.9010   40.0490 N   0  0  0  0  0  0  0  0  0  0  0  0
   47.2890   33.3320   40.1960 C   0  0  0  0  0  0  0  0  0  0  0  0
   46.2910   34.2790   40.8310 C   0  0  0  0  0  0  0  0  0  0  0  0
   46.6160   32.0100   45.4510 C   0  0  0  0  0  0  0  0  0  0  0  0
   46.8610   32.7400   44.2650 C   0  0  0  0  0  0  0  0  0  0  0  0
   47.8170   32.1090   43.4890 C   0  0  0  0  0  0  0  0  0  0  0  0
   48.4610   30.9450   43.7930 C   0  0  0  0  0  0  0  0  0  0  0  0
   48.1630   30.2990   44.9770 C   0  0  0  0  0  0  0  0  0  0  0  0
   47.2290   30.8300   45.8200 C   0  0  0  0  0  0  0  0  0  0  0  0
   48.9770   29.1830   44.9850 O   0  0  0  0  0  0  0  0  0  0  0  0
   49.6590   29.0700   43.7610 C   0  0  1  0  0  0  0  0  0  0  0  0
   49.4200   30.2800   43.0500 O   0  0  0  0  0  0  0  0  0  0  0  0
   51.1030   28.7960   43.8840 C   0  0  0  0  0  0  0  0  0  0  0  0
   51.9740   29.7010   43.3090 C   0  0  0  0  0  0  0  0  0  0  0  0
   53.3280   29.3790   43.4620 C   0  0  0  0  0  0  0  0  0  0  0  0
   53.8040   28.2920   44.1060 N   0  0  0  0  0  0  0  0  0  0  0  0
   52.8820   27.4440   44.6490 C   0  0  0  0  0  0  0  0  0  0  0  0
   51.5540   27.6970   44.5360 N   0  0  0  0  0  0  0  0  0  0  0  0
   45.1422   36.8067   42.7206 H   0  0  0  0  0  0  0  0  0  0  0  0
   44.0618   35.2550   46.4991 H   0  0  0  0  0  0  0  0  0  0  0  0
   47.9312   36.5562   41.9927 H   0  0  0  0  0  0  0  0  0  0  0  0
   48.6746   35.0084   42.6512 H   0  0  0  0  0  0  0  0  0  0  0  0
   48.3041   35.9029   39.8230 H   0  0  0  0  0  0  0  0  0  0  0  0
   49.7889   35.3135   40.7465 H   0  0  0  0  0  0  0  0  0  0  0  0
   49.2297   33.2892   40.5259 H   0  0  0  0  0  0  0  0  0  0  0  0
   46.9160   33.0420   39.2027 H   0  0  0  0  0  0  0  0  0  0  0  0
   47.3919   32.4625   40.8619 H   0  0  0  0  0  0  0  0  0  0  0  0
   46.0591   35.0746   40.1077 H   0  0  0  0  0  0  0  0  0  0  0  0
   45.4066   33.6815   41.0972 H   0  0  0  0  0  0  0  0  0  0  0  0
   45.8671   32.4210   46.1440 H   0  0  0  0  0  0  0  0  0  0  0  0
   48.0831   32.5913   42.5369 H   0  0  0  0  0  0  0  0  0  0  0  0
   46.9726   30.3313   46.7663 H   0  0  0  0  0  0  0  0  0  0  0  0
   49.2739   28.1906   43.2240 H   0  0  0  0  0  0  0  0  0  0  0  0
   51.6322   30.6000   42.7752 H   0  0  0  0  0  0  0  0  0  0  0  0
   54.0639   30.0678   43.0216 H   0  0  0  0  0  0  0  0  0  0  0  0
   53.2201   26.5447   45.1846 H   0  0  0  0  0  0  0  0  0  0  0  0
  1  6  2  0
  2  1  1  0
  2  3  2  0
  3 14  1  0
  3  4  1  0
  4  5  2  0
  6  5  1  0
  7  2  1  0
  8  7  1  0
  9  8  1  0
 10 11  1  0
 10  9  1  0
 11 12  1  0
 12  7  1  0
 13 18  2  0
 14 13  1  0
 15 16  1  0
 15 14  2  0
 16 17  2  0
 17 19  1  0
 17 18  1  0
 20 22  1  0
 20 19  1  0
 21 20  1  0
 21 16  1  0
 22 27  2  0
 23 24  2  0
 23 22  1  0
 24 25  1  0
 25 26  2  0
 27 26  1  0
  1 28  1  0
  5 29  1  0
  8 30  1  0
  8 31  1  0
  9 32  1  0
  9 33  1  0
 10 34  1  0
 11 35  1  0
 11 36  1  0
 12 37  1  0
 12 38  1  0
 13 39  1  0
 15 40  1  0
 18 41  1  0
 20 42  1  6
 23 43  1  0
 24 44  1  0
 26 45  1  0
M  ISO  8  28  14  29  14  30  13  31  13  32  13  33  13  34   5  35  13
M  ISO  8  36  13  37  13  38  13  39  14  40  14  41  14  42  13  43  14
M  ISO  2  44  14  45  14
M  END
>  <minimizedAffinity>  (1) 
-5.29785585

>  <minimizedRMSD>  (1) 
0.280877888

$$$$
