
     RDKit          3D

 51 55  0  0  1  0  0  0  0  0999 V2000
   45.1270   36.0200   43.4940 C   0  0  0  0  0  0  0  0  0  0  0  0
   45.9180   34.9050   43.2590 C   0  0  0  0  0  0  0  0  0  0  0  0
   46.0360   33.9740   44.2580 C   0  0  0  0  0  0  0  0  0  0  0  0
   45.3730   34.1870   45.4370 N   0  0  0  0  0  0  0  0  0  0  0  0
   44.6120   35.2810   45.6380 C   0  0  0  0  0  0  0  0  0  0  0  0
   44.4970   36.1760   44.6770 N   0  0  0  0  0  0  0  0  0  0  0  0
   46.5690   34.8050   42.0280 N   0  0  0  0  0  0  0  0  0  0  0  0
   47.8850   35.2740   41.8110 C   0  0  0  0  0  0  0  0  0  0  0  0
   48.4690   34.9320   40.4650 C   0  0  0  0  0  0  0  0  0  0  0  0
   48.1610   33.6520   39.9700 N   0  0  0  0  0  0  0  0  0  0  0  0
   46.8580   33.1900   40.1900 C   0  0  0  0  0  0  0  0  0  0  0  0
   45.9890   34.2320   40.8630 C   0  0  0  0  0  0  0  0  0  0  0  0
   46.4260   32.0200   45.5150 C   0  0  0  0  0  0  0  0  0  0  0  0
   46.7260   32.7520   44.3420 C   0  0  0  0  0  0  0  0  0  0  0  0
   47.6870   32.0980   43.5930 C   0  0  0  0  0  0  0  0  0  0  0  0
   48.2870   30.9180   43.9070 C   0  0  0  0  0  0  0  0  0  0  0  0
   47.9400   30.2730   45.0790 C   0  0  0  0  0  0  0  0  0  0  0  0
   47.0010   30.8200   45.8930 C   0  0  0  0  0  0  0  0  0  0  0  0
   48.7250   29.1410   45.1020 O   0  0  0  0  0  0  0  0  0  0  0  0
   49.4240   29.0010   43.8940 C   0  0  1  0  0  0  0  0  0  0  0  0
   49.2470   30.2290   43.1790 O   0  0  0  0  0  0  0  0  0  0  0  0
   50.8420   28.8570   44.0530 N   0  0  0  0  0  0  0  0  0  0  0  0
   51.6110   29.5770   43.0910 C   0  0  0  0  0  0  0  0  0  0  0  0
   53.0630   29.5700   43.4600 C   0  0  0  0  0  0  0  0  0  0  0  0
   53.3780   28.3830   44.2030 N   0  0  0  0  0  0  0  0  0  0  0  0
   52.6820   28.3500   45.4680 C   0  0  0  0  0  0  0  0  0  0  0  0
   51.3150   29.0060   45.4050 C   0  0  0  0  0  0  0  0  0  0  0  0
   45.0124   36.7829   42.7099 H   0  0  0  0  0  0  0  0  0  0  0  0
   44.0912   35.4259   46.5960 H   0  0  0  0  0  0  0  0  0  0  0  0
   47.8778   36.3694   41.9115 H   0  0  0  0  0  0  0  0  0  0  0  0
   48.5175   34.7711   42.5573 H   0  0  0  0  0  0  0  0  0  0  0  0
   48.1000   35.6719   39.7395 H   0  0  0  0  0  0  0  0  0  0  0  0
   49.5604   34.9440   40.6018 H   0  0  0  0  0  0  0  0  0  0  0  0
   48.8081   32.9828   40.4108 H   0  0  0  0  0  0  0  0  0  0  0  0
   46.4079   32.9245   39.2221 H   0  0  0  0  0  0  0  0  0  0  0  0
   46.9167   32.3168   40.8564 H   0  0  0  0  0  0  0  0  0  0  0  0
   45.7946   35.0388   40.1410 H   0  0  0  0  0  0  0  0  0  0  0  0
   45.0700   33.7200   41.1843 H   0  0  0  0  0  0  0  0  0  0  0  0
   45.6660   32.4439   46.1879 H   0  0  0  0  0  0  0  0  0  0  0  0
   47.9961   32.5780   42.6528 H   0  0  0  0  0  0  0  0  0  0  0  0
   46.7053   30.3221   46.8283 H   0  0  0  0  0  0  0  0  0  0  0  0
   49.0380   28.0991   43.3964 H   0  0  0  0  0  0  0  0  0  0  0  0
   51.2543   30.6167   43.0488 H   0  0  0  0  0  0  0  0  0  0  0  0
   51.4933   29.0926   42.1104 H   0  0  0  0  0  0  0  0  0  0  0  0
   53.6712   29.5978   42.5439 H   0  0  0  0  0  0  0  0  0  0  0  0
   53.2806   30.4515   44.0810 H   0  0  0  0  0  0  0  0  0  0  0  0
   53.1045   27.5589   43.6489 H   0  0  0  0  0  0  0  0  0  0  0  0
   52.5544   27.3004   45.7715 H   0  0  0  0  0  0  0  0  0  0  0  0
   53.2867   28.9142   46.1933 H   0  0  0  0  0  0  0  0  0  0  0  0
   51.3949   30.0724   45.6625 H   0  0  0  0  0  0  0  0  0  0  0  0
   50.6207   28.5390   46.1190 H   0  0  0  0  0  0  0  0  0  0  0  0
  1  6  2  0
  2  1  1  0
  2  3  2  0
  3 14  1  0
  3  4  1  0
  4  5  2  0
  6  5  1  0
  7  2  1  0
  8  7  1  0
  9  8  1  0
 10 11  1  0
 10  9  1  0
 11 12  1  0
 12  7  1  0
 13 18  2  0
 14 13  1  0
 15 16  1  0
 15 14  2  0
 16 17  2  0
 17 19  1  0
 17 18  1  0
 20 22  1  0
 20 19  1  0
 21 20  1  0
 21 16  1  0
 22 27  1  0
 23 24  1  0
 23 22  1  0
 24 25  1  0
 25 26  1  0
 27 26  1  0
  1 28  1  0
  5 29  1  0
  8 30  1  0
  8 31  1  0
  9 32  1  0
  9 33  1  0
 10 34  1  0
 11 35  1  0
 11 36  1  0
 12 37  1  0
 12 38  1  0
 13 39  1  0
 15 40  1  0
 18 41  1  0
 20 42  1  6
 23 43  1  0
 23 44  1  0
 24 45  1  0
 24 46  1  0
 25 47  1  0
 26 48  1  0
 26 49  1  0
 27 50  1  0
 27 51  1  0
M  ISO  8  28  14  29  14  30  13  31  13  32  13  33  13  34   5  35  13
M  ISO  8  36  13  37  13  38  13  39  14  40  14  41  14  42  13  43  13
M  ISO  8  44  13  45  13  46  13  47   5  48  13  49  13  50  13  51  13
M  END
>  <minimizedAffinity>  (1) 
-5.25742197

>  <minimizedRMSD>  (1) 
0.523030639

$$$$
