
     RDKit          3D

 52 56  0  0  1  0  0  0  0  0999 V2000
   45.1450   36.0290   43.5090 C   0  0  0  0  0  0  0  0  0  0  0  0
   45.9540   34.9190   43.2600 C   0  0  0  0  0  0  0  0  0  0  0  0
   46.0660   33.9750   44.2390 C   0  0  0  0  0  0  0  0  0  0  0  0
   45.3850   34.1670   45.3810 N   0  0  0  0  0  0  0  0  0  0  0  0
   44.6080   35.2310   45.6190 C   0  0  0  0  0  0  0  0  0  0  0  0
   44.4920   36.1540   44.6880 N   0  0  0  0  0  0  0  0  0  0  0  0
   46.5590   34.8160   42.0010 N   0  0  0  0  0  0  0  0  0  0  0  0
   47.8410   35.2290   41.7110 C   0  0  0  0  0  0  0  0  0  0  0  0
   48.3250   34.8700   40.3200 C   0  0  0  0  0  0  0  0  0  0  0  0
   47.9620   33.6070   39.8480 N   0  0  0  0  0  0  0  0  0  0  0  0
   46.6450   33.1870   40.1280 C   0  0  0  0  0  0  0  0  0  0  0  0
   45.8660   34.2570   40.8520 C   0  0  0  0  0  0  0  0  0  0  0  0
   46.5010   32.0120   45.4880 C   0  0  0  0  0  0  0  0  0  0  0  0
   46.8110   32.7820   44.3350 C   0  0  0  0  0  0  0  0  0  0  0  0
   47.7850   32.1520   43.5770 C   0  0  0  0  0  0  0  0  0  0  0  0
   48.3970   30.9580   43.8470 C   0  0  0  0  0  0  0  0  0  0  0  0
   48.0410   30.2830   44.9720 C   0  0  0  0  0  0  0  0  0  0  0  0
   47.0910   30.8040   45.8010 C   0  0  0  0  0  0  0  0  0  0  0  0
   48.8120   29.1380   44.9740 O   0  0  0  0  0  0  0  0  0  0  0  0
   49.6960   29.1570   43.8750 C   0  0  1  0  0  0  0  0  0  0  0  0
   49.3650   30.3070   43.1170 O   0  0  0  0  0  0  0  0  0  0  0  0
   51.0750   29.2820   44.2680 N   0  0  0  0  0  0  0  0  0  0  0  0
   51.6860   28.1100   44.7830 C   0  0  0  0  0  0  0  0  0  0  0  0
   52.0730   27.2300   43.6160 C   0  0  0  0  0  0  0  0  0  0  0  0
   52.9900   27.9530   42.6700 C   0  0  0  0  0  0  0  0  0  0  0  0
   52.5560   29.3310   42.3050 C   0  0  0  0  0  0  0  0  0  0  0  0
   51.8640   30.0890   43.4130 C   0  0  0  0  0  0  0  0  0  0  0  0
   45.0373   36.8087   42.7406 H   0  0  0  0  0  0  0  0  0  0  0  0
   44.0757   35.3320   46.5763 H   0  0  0  0  0  0  0  0  0  0  0  0
   47.8798   36.3234   41.8150 H   0  0  0  0  0  0  0  0  0  0  0  0
   48.5026   34.7025   42.4146 H   0  0  0  0  0  0  0  0  0  0  0  0
   47.9224   35.6180   39.6211 H   0  0  0  0  0  0  0  0  0  0  0  0
   49.4230   34.8557   40.3848 H   0  0  0  0  0  0  0  0  0  0  0  0
   48.6055   32.9197   40.2656 H   0  0  0  0  0  0  0  0  0  0  0  0
   46.1357   32.9525   39.1816 H   0  0  0  0  0  0  0  0  0  0  0  0
   46.6960   32.2992   40.7755 H   0  0  0  0  0  0  0  0  0  0  0  0
   45.6570   35.0722   40.1436 H   0  0  0  0  0  0  0  0  0  0  0  0
   44.9497   33.7820   41.2325 H   0  0  0  0  0  0  0  0  0  0  0  0
   45.7395   32.4049   46.1777 H   0  0  0  0  0  0  0  0  0  0  0  0
   48.1007   32.6678   42.6581 H   0  0  0  0  0  0  0  0  0  0  0  0
   46.7969   30.2646   46.7135 H   0  0  0  0  0  0  0  0  0  0  0  0
   49.5916   28.2115   43.3227 H   0  0  0  0  0  0  0  0  0  0  0  0
   52.5829   28.3799   45.3599 H   0  0  0  0  0  0  0  0  0  0  0  0
   50.9892   27.5775   45.4470 H   0  0  0  0  0  0  0  0  0  0  0  0
   52.5846   26.3338   43.9968 H   0  0  0  0  0  0  0  0  0  0  0  0
   51.1587   26.9529   43.0708 H   0  0  0  0  0  0  0  0  0  0  0  0
   53.9820   28.0207   43.1406 H   0  0  0  0  0  0  0  0  0  0  0  0
   52.9896   27.3721   41.7359 H   0  0  0  0  0  0  0  0  0  0  0  0
   53.4465   29.9021   42.0034 H   0  0  0  0  0  0  0  0  0  0  0  0
   51.8184   29.2205   41.4965 H   0  0  0  0  0  0  0  0  0  0  0  0
   52.6330   30.5866   44.0221 H   0  0  0  0  0  0  0  0  0  0  0  0
   51.1772   30.7981   42.9277 H   0  0  0  0  0  0  0  0  0  0  0  0
  1  6  2  0
  2  1  1  0
  2  3  2  0
  3 14  1  0
  3  4  1  0
  4  5  2  0
  6  5  1  0
  7  2  1  0
  8  7  1  0
  9  8  1  0
 10 11  1  0
 10  9  1  0
 11 12  1  0
 12  7  1  0
 13 18  2  0
 14 13  1  0
 15 16  1  0
 15 14  2  0
 16 17  2  0
 17 19  1  0
 17 18  1  0
 20 22  1  0
 20 19  1  0
 21 16  1  0
 21 20  1  0
 22 23  1  0
 24 23  1  0
 25 24  1  0
 26 25  1  0
 26 27  1  0
 27 22  1  0
  1 28  1  0
  5 29  1  0
  8 30  1  0
  8 31  1  0
  9 32  1  0
  9 33  1  0
 10 34  1  0
 11 35  1  0
 11 36  1  0
 12 37  1  0
 12 38  1  0
 13 39  1  0
 15 40  1  0
 18 41  1  0
 20 42  1  6
 23 43  1  0
 23 44  1  0
 24 45  1  0
 24 46  1  0
 25 47  1  0
 25 48  1  0
 26 49  1  0
 26 50  1  0
 27 51  1  0
 27 52  1  0
M  ISO  8  28  14  29  14  30  13  31  13  32  13  33  13  34   5  35  13
M  ISO  8  36  13  37  13  38  13  39  14  40  14  41  14  42  13  43  13
M  ISO  8  44  13  45  13  46  13  47  13  48  13  49  13  50  13  51  13
M  ISO  1  52  13
M  END
>  <minimizedAffinity>  (1) 
-5.24970865

>  <minimizedRMSD>  (1) 
0.792628109

$$$$
