
     RDKit          3D

 40 43  0  0  1  0  0  0  0  0999 V2000
   45.1230   36.0180   43.5010 C   0  0  0  0  0  0  0  0  0  0  0  0
   45.9170   34.9030   43.2620 C   0  0  0  0  0  0  0  0  0  0  0  0
   46.0370   33.9680   44.2580 C   0  0  0  0  0  0  0  0  0  0  0  0
   45.3740   34.1770   45.4390 N   0  0  0  0  0  0  0  0  0  0  0  0
   44.6130   35.2640   45.6440 C   0  0  0  0  0  0  0  0  0  0  0  0
   44.4900   36.1680   44.6900 N   0  0  0  0  0  0  0  0  0  0  0  0
   46.5570   34.8050   42.0280 N   0  0  0  0  0  0  0  0  0  0  0  0
   47.8730   35.2650   41.8060 C   0  0  0  0  0  0  0  0  0  0  0  0
   48.4430   34.9270   40.4490 C   0  0  0  0  0  0  0  0  0  0  0  0
   48.1430   33.6550   39.9610 N   0  0  0  0  0  0  0  0  0  0  0  0
   46.8380   33.2050   40.1760 C   0  0  0  0  0  0  0  0  0  0  0  0
   45.9740   34.2470   40.8550 C   0  0  0  0  0  0  0  0  0  0  0  0
   46.4520   32.0210   45.5140 C   0  0  0  0  0  0  0  0  0  0  0  0
   46.7400   32.7530   44.3400 C   0  0  0  0  0  0  0  0  0  0  0  0
   47.7020   32.1080   43.5820 C   0  0  0  0  0  0  0  0  0  0  0  0
   48.3140   30.9300   43.8980 C   0  0  0  0  0  0  0  0  0  0  0  0
   47.9760   30.2830   45.0710 C   0  0  0  0  0  0  0  0  0  0  0  0
   47.0310   30.8280   45.8960 C   0  0  0  0  0  0  0  0  0  0  0  0
   48.7650   29.1490   45.0960 O   0  0  0  0  0  0  0  0  0  0  0  0
   49.5150   29.0490   43.9120 C   0  0  1  0  0  0  0  0  0  0  0  0
   49.2770   30.2500   43.1700 O   0  0  0  0  0  0  0  0  0  0  0  0
   50.9860   28.8820   44.1080 C   0  0  0  0  0  0  0  0  0  0  0  0
   45.0074   36.7840   42.7200 H   0  0  0  0  0  0  0  0  0  0  0  0
   44.0936   35.4008   46.6040 H   0  0  0  0  0  0  0  0  0  0  0  0
   47.8756   36.3596   41.9150 H   0  0  0  0  0  0  0  0  0  0  0  0
   48.5079   34.7531   42.5441 H   0  0  0  0  0  0  0  0  0  0  0  0
   48.0576   35.6637   39.7287 H   0  0  0  0  0  0  0  0  0  0  0  0
   49.5359   34.9482   40.5719 H   0  0  0  0  0  0  0  0  0  0  0  0
   48.7844   32.9863   40.4109 H   0  0  0  0  0  0  0  0  0  0  0  0
   46.3875   32.9502   39.2054 H   0  0  0  0  0  0  0  0  0  0  0  0
   46.8898   32.3281   40.8382 H   0  0  0  0  0  0  0  0  0  0  0  0
   45.7876   35.0617   40.1398 H   0  0  0  0  0  0  0  0  0  0  0  0
   45.0495   33.7400   41.1683 H   0  0  0  0  0  0  0  0  0  0  0  0
   45.6927   32.4431   46.1888 H   0  0  0  0  0  0  0  0  0  0  0  0
   48.0004   32.5889   42.6388 H   0  0  0  0  0  0  0  0  0  0  0  0
   46.7418   30.3313   46.8339 H   0  0  0  0  0  0  0  0  0  0  0  0
   49.1892   28.1365   43.3912 H   0  0  0  0  0  0  0  0  0  0  0  0
   51.2119   28.8564   45.1842 H   0  0  0  0  0  0  0  0  0  0  0  0
   51.3135   27.9409   43.6421 H   0  0  0  0  0  0  0  0  0  0  0  0
   51.5161   29.7257   43.6421 H   0  0  0  0  0  0  0  0  0  0  0  0
  1  6  2  0
  2  1  1  0
  2  3  2  0
  3 14  1  0
  3  4  1  0
  4  5  2  0
  6  5  1  0
  7  2  1  0
  8  7  1  0
  9  8  1  0
 10 11  1  0
 10  9  1  0
 11 12  1  0
 12  7  1  0
 13 18  2  0
 14 13  1  0
 15 16  1  0
 15 14  2  0
 16 17  2  0
 17 19  1  0
 17 18  1  0
 20 22  1  0
 20 19  1  0
 21 16  1  0
 21 20  1  0
  1 23  1  0
  5 24  1  0
  8 25  1  0
  8 26  1  0
  9 27  1  0
  9 28  1  0
 10 29  1  0
 11 30  1  0
 11 31  1  0
 12 32  1  0
 12 33  1  0
 13 34  1  0
 15 35  1  0
 18 36  1  0
 20 37  1  6
 22 38  1  0
 22 39  1  0
 22 40  1  0
M  ISO  8  23  14  24  14  25  13  26  13  27  13  28  13  29   5  30  13
M  ISO  8  31  13  32  13  33  13  34  14  35  14  36  14  37  13  38   8
M  ISO  2  39   8  40   8
M  END
>  <minimizedAffinity>  (1) 
-5.18299246

>  <minimizedRMSD>  (1) 
0.036826048

$$$$
