
     RDKit          3D

 39 42  0  0  1  0  0  0  0  0999 V2000
   45.1220   36.0110   43.5040 C   0  0  0  0  0  0  0  0  0  0  0  0
   45.9160   34.8910   43.2590 C   0  0  0  0  0  0  0  0  0  0  0  0
   46.0350   33.9610   44.2540 C   0  0  0  0  0  0  0  0  0  0  0  0
   45.3810   34.1690   45.4370 N   0  0  0  0  0  0  0  0  0  0  0  0
   44.6200   35.2590   45.6520 C   0  0  0  0  0  0  0  0  0  0  0  0
   44.4980   36.1590   44.6960 N   0  0  0  0  0  0  0  0  0  0  0  0
   46.5540   34.8000   42.0280 N   0  0  0  0  0  0  0  0  0  0  0  0
   47.8730   35.2620   41.8130 C   0  0  0  0  0  0  0  0  0  0  0  0
   48.4520   34.9290   40.4590 C   0  0  0  0  0  0  0  0  0  0  0  0
   48.1510   33.6570   39.9610 N   0  0  0  0  0  0  0  0  0  0  0  0
   46.8420   33.2070   40.1680 C   0  0  0  0  0  0  0  0  0  0  0  0
   45.9800   34.2500   40.8490 C   0  0  0  0  0  0  0  0  0  0  0  0
   46.4750   32.0250   45.5260 C   0  0  0  0  0  0  0  0  0  0  0  0
   46.7350   32.7430   44.3320 C   0  0  0  0  0  0  0  0  0  0  0  0
   47.6730   32.0820   43.5600 C   0  0  0  0  0  0  0  0  0  0  0  0
   48.2820   30.9040   43.8760 C   0  0  0  0  0  0  0  0  0  0  0  0
   47.9740   30.2730   45.0590 C   0  0  0  0  0  0  0  0  0  0  0  0
   47.0580   30.8340   45.9010 C   0  0  0  0  0  0  0  0  0  0  0  0
   48.7540   29.1300   45.0760 O   0  0  0  0  0  0  0  0  0  0  0  0
   49.5810   29.0880   43.9310 C   0  0  2  0  0  0  0  0  0  0  0  0
   49.2260   30.2120   43.1230 O   0  0  0  0  0  0  0  0  0  0  0  0
   49.3900   27.8460   43.2150 N   0  0  0  0  0  0  0  0  0  0  0  0
   45.0022   36.7780   42.7246 H   0  0  0  0  0  0  0  0  0  0  0  0
   44.1058   35.3971   46.6146 H   0  0  0  0  0  0  0  0  0  0  0  0
   47.8740   36.3563   41.9250 H   0  0  0  0  0  0  0  0  0  0  0  0
   48.5039   34.7472   42.5526 H   0  0  0  0  0  0  0  0  0  0  0  0
   48.0744   35.6705   39.7395 H   0  0  0  0  0  0  0  0  0  0  0  0
   49.5440   34.9461   40.5903 H   0  0  0  0  0  0  0  0  0  0  0  0
   48.7893   32.9846   40.4097 H   0  0  0  0  0  0  0  0  0  0  0  0
   46.3946   32.9583   39.1943 H   0  0  0  0  0  0  0  0  0  0  0  0
   46.8875   32.3253   40.8242 H   0  0  0  0  0  0  0  0  0  0  0  0
   45.8024   35.0694   40.1369 H   0  0  0  0  0  0  0  0  0  0  0  0
   45.0528   33.7435   41.1550 H   0  0  0  0  0  0  0  0  0  0  0  0
   45.7387   32.4592   46.2183 H   0  0  0  0  0  0  0  0  0  0  0  0
   47.9530   32.5492   42.6043 H   0  0  0  0  0  0  0  0  0  0  0  0
   46.7926   30.3492   46.8521 H   0  0  0  0  0  0  0  0  0  0  0  0
   50.6449   29.1348   44.2066 H   0  0  0  0  0  0  0  0  0  0  0  0
   49.2716   27.0760   43.8888 H   0  0  0  0  0  0  0  0  0  0  0  0
   48.5500   27.9166   42.6232 H   0  0  0  0  0  0  0  0  0  0  0  0
  1  6  2  0
  2  1  1  0
  2  3  2  0
  3 14  1  0
  3  4  1  0
  4  5  2  0
  6  5  1  0
  7  2  1  0
  8  7  1  0
  9  8  1  0
 10 11  1  0
 10  9  1  0
 11 12  1  0
 12  7  1  0
 13 18  2  0
 14 13  1  0
 15 16  1  0
 15 14  2  0
 16 17  2  0
 17 19  1  0
 17 18  1  0
 20 19  1  0
 21 16  1  0
 21 20  1  0
 22 20  1  0
  1 23  1  0
  5 24  1  0
  8 25  1  0
  8 26  1  0
  9 27  1  0
  9 28  1  0
 10 29  1  0
 11 30  1  0
 11 31  1  0
 12 32  1  0
 12 33  1  0
 13 34  1  0
 15 35  1  0
 18 36  1  0
 20 37  1  1
 22 38  1  0
 22 39  1  0
M  ISO  8  23  14  24  14  25  13  26  13  27  13  28  13  29   5  30  13
M  ISO  8  31  13  32  13  33  13  34  14  35  14  36  14  37  13  38   5
M  ISO  1  39   5
M  END
>  <minimizedAffinity>  (1) 
-5.10644817

>  <minimizedRMSD>  (1) 
0.0411676317

$$$$
