
     RDKit          3D

 40 43  0  0  1  0  0  0  0  0999 V2000
   45.1580   36.0580   43.4970 C   0  0  0  0  0  0  0  0  0  0  0  0
   45.9470   34.9280   43.2750 C   0  0  0  0  0  0  0  0  0  0  0  0
   46.0340   34.0010   44.2710 C   0  0  0  0  0  0  0  0  0  0  0  0
   45.3490   34.2240   45.4050 N   0  0  0  0  0  0  0  0  0  0  0  0
   44.5880   35.3130   45.6150 C   0  0  0  0  0  0  0  0  0  0  0  0
   44.5000   36.2180   44.6640 N   0  0  0  0  0  0  0  0  0  0  0  0
   46.5630   34.7960   42.0230 N   0  0  0  0  0  0  0  0  0  0  0  0
   47.8550   35.1850   41.7420 C   0  0  0  0  0  0  0  0  0  0  0  0
   48.3550   34.8010   40.3680 C   0  0  0  0  0  0  0  0  0  0  0  0
   47.9780   33.5320   39.9110 N   0  0  0  0  0  0  0  0  0  0  0  0
   46.6490   33.1380   40.1790 C   0  0  0  0  0  0  0  0  0  0  0  0
   45.8780   34.2310   40.8730 C   0  0  0  0  0  0  0  0  0  0  0  0
   46.5650   32.1470   45.6430 C   0  0  0  0  0  0  0  0  0  0  0  0
   46.7580   32.7980   44.3940 C   0  0  0  0  0  0  0  0  0  0  0  0
   47.6270   32.0710   43.5930 C   0  0  0  0  0  0  0  0  0  0  0  0
   48.2390   30.8930   43.8990 C   0  0  0  0  0  0  0  0  0  0  0  0
   48.0010   30.3300   45.1160 C   0  0  0  0  0  0  0  0  0  0  0  0
   47.1600   30.9540   45.9980 C   0  0  0  0  0  0  0  0  0  0  0  0
   48.7420   29.1630   45.1380 O   0  0  0  0  0  0  0  0  0  0  0  0
   49.3210   28.9470   43.8720 C   0  0  2  0  0  0  0  0  0  0  0  0
   49.1050   30.1390   43.1430 O   0  0  0  0  0  0  0  0  0  0  0  0
   48.5220   27.8500   43.1630 C   0  0  0  0  0  0  0  0  0  0  0  0
   47.6450   27.3190   44.0900 F   0  0  0  0  0  0  0  0  0  0  0  0
   49.3510   26.8350   42.7400 F   0  0  0  0  0  0  0  0  0  0  0  0
   47.7870   28.3620   42.1380 F   0  0  0  0  0  0  0  0  0  0  0  0
   45.0719   36.8251   42.7133 H   0  0  0  0  0  0  0  0  0  0  0  0
   44.0489   35.4446   46.5648 H   0  0  0  0  0  0  0  0  0  0  0  0
   47.9082   36.2802   41.8304 H   0  0  0  0  0  0  0  0  0  0  0  0
   48.4978   34.6562   42.4611 H   0  0  0  0  0  0  0  0  0  0  0  0
   47.9744   35.5438   39.6514 H   0  0  0  0  0  0  0  0  0  0  0  0
   49.4518   34.7742   40.4478 H   0  0  0  0  0  0  0  0  0  0  0  0
   48.6041   32.8420   40.3500 H   0  0  0  0  0  0  0  0  0  0  0  0
   46.1496   32.8960   39.2293 H   0  0  0  0  0  0  0  0  0  0  0  0
   46.6763   32.2606   40.8419 H   0  0  0  0  0  0  0  0  0  0  0  0
   45.6936   35.0382   40.1488 H   0  0  0  0  0  0  0  0  0  0  0  0
   44.9479   33.7778   41.2465 H   0  0  0  0  0  0  0  0  0  0  0  0
   45.8974   32.6260   46.3744 H   0  0  0  0  0  0  0  0  0  0  0  0
   47.8460   32.4926   42.6009 H   0  0  0  0  0  0  0  0  0  0  0  0
   46.9601   30.5071   46.9831 H   0  0  0  0  0  0  0  0  0  0  0  0
   50.3834   28.6730   43.9503 H   0  0  0  0  0  0  0  0  0  0  0  0
  1  6  2  0
  2  1  1  0
  2  3  2  0
  3 14  1  0
  3  4  1  0
  4  5  2  0
  6  5  1  0
  7  2  1  0
  8  7  1  0
  9  8  1  0
 10 11  1  0
 10  9  1  0
 11 12  1  0
 12  7  1  0
 13 18  2  0
 14 13  1  0
 15 16  1  0
 15 14  2  0
 16 17  2  0
 17 19  1  0
 17 18  1  0
 20 19  1  0
 21 20  1  0
 21 16  1  0
 22 20  1  0
 22 23  1  0
 24 22  1  0
 25 22  1  0
  1 26  1  0
  5 27  1  0
  8 28  1  0
  8 29  1  0
  9 30  1  0
  9 31  1  0
 10 32  1  0
 11 33  1  0
 11 34  1  0
 12 35  1  0
 12 36  1  0
 13 37  1  0
 15 38  1  0
 18 39  1  0
 20 40  1  1
M  ISO  8  26  14  27  14  28  13  29  13  30  13  31  13  32   5  33  13
M  ISO  7  34  13  35  13  36  13  37  14  38  14  39  14  40  13
M  END
>  <minimizedAffinity>  (1) 
-4.9071703

>  <minimizedRMSD>  (1) 
0.22371386

$$$$
