
     RDKit          3D

 27 29  0  0  0  0  0  0  0  0999 V2000
   44.8070   33.1140   41.1290 Cl  0  0  0  0  0  0  0  0  0  0  0  0
   46.3250   33.9440   40.9170 C   0  0  0  0  0  0  0  0  0  0  0  0
   46.8250   34.7140   41.9180 C   0  0  0  0  0  0  0  0  0  0  0  0
   48.0470   35.3930   41.7690 C   0  0  0  0  0  0  0  0  0  0  0  0
   48.6950   35.2300   40.5630 C   0  0  0  0  0  0  0  0  0  0  0  0
   48.1730   34.4470   39.5610 C   0  0  0  0  0  0  0  0  0  0  0  0
   46.9870   33.7950   39.7220 C   0  0  0  0  0  0  0  0  0  0  0  0
   45.6060   34.0480   45.3210 C   0  0  0  0  0  0  0  0  0  0  0  0
   44.7090   35.1210   45.5400 C   0  0  0  0  0  0  0  0  0  0  0  0
   44.5440   36.0430   44.5190 C   0  0  0  0  0  0  0  0  0  0  0  0
   45.2460   35.8700   43.3730 N   0  0  0  0  0  0  0  0  0  0  0  0
   46.0950   34.8490   43.1770 C   0  0  0  0  0  0  0  0  0  0  0  0
   46.2790   33.9250   44.1590 N   0  0  0  0  0  0  0  0  0  0  0  0
   46.4150   32.9570   38.6720 C   0  0  0  0  0  0  0  0  0  0  0  0
   46.7370   31.6430   38.4020 C   0  0  0  0  0  0  0  0  0  0  0  0
   45.9400   31.2730   37.3230 C   0  0  0  0  0  0  0  0  0  0  0  0
   45.1790   32.3840   37.0000 C   0  0  0  0  0  0  0  0  0  0  0  0
   45.4950   33.3390   37.8170 O   0  0  0  0  0  0  0  0  0  0  0  0
   48.4635   36.0202   42.5710 H   0  0  0  0  0  0  0  0  0  0  0  0
   49.6555   35.7402   40.3982 H   0  0  0  0  0  0  0  0  0  0  0  0
   48.7218   34.3449   38.6132 H   0  0  0  0  0  0  0  0  0  0  0  0
   45.7569   33.3004   46.1137 H   0  0  0  0  0  0  0  0  0  0  0  0
   44.1614   35.2195   46.4889 H   0  0  0  0  0  0  0  0  0  0  0  0
   43.8590   36.8957   44.6360 H   0  0  0  0  0  0  0  0  0  0  0  0
   47.4716   31.0174   38.9302 H   0  0  0  0  0  0  0  0  0  0  0  0
   45.9187   30.2923   36.8252 H   0  0  0  0  0  0  0  0  0  0  0  0
   44.4360   32.4452   36.1912 H   0  0  0  0  0  0  0  0  0  0  0  0
  2  1  1  0
  2  3  2  0
  3 12  1  0
  4  3  1  0
  5  4  2  0
  6  7  2  0
  6  5  1  0
  7  2  1  0
  8  9  2  0
 10  9  1  0
 11 10  2  0
 12 11  1  0
 12 13  2  0
 13  8  1  0
 14  7  1  0
 15 14  2  0
 16 15  1  0
 17 16  2  0
 17 18  1  0
 18 14  1  0
  4 19  1  0
  5 20  1  0
  6 21  1  0
  8 22  1  0
  9 23  1  0
 10 24  1  0
 15 25  1  0
 16 26  1  0
 17 27  1  0
M  ISO  8  19  14  20  14  21  14  22  14  23  14  24  14  25  14  26  14
M  ISO  1  27  14
M  END
>  <minimizedAffinity>  (1) 
-5.351717

>  <minimizedRMSD>  (1) 
0.080840461

$$$$
