
     RDKit          3D

 48 52  0  0  1  0  0  0  0  0999 V2000
   46.6020   32.6430   46.5860 C   0  0  0  0  0  0  0  0  0  0  0  0
   46.5670   32.6790   45.1800 C   0  0  0  0  0  0  0  0  0  0  0  0
   47.1040   31.5380   44.6340 C   0  0  0  0  0  0  0  0  0  0  0  0
   47.6180   30.4860   45.3300 C   0  0  0  0  0  0  0  0  0  0  0  0
   47.6190   30.5330   46.7220 C   0  0  0  0  0  0  0  0  0  0  0  0
   47.1020   31.6260   47.3560 C   0  0  0  0  0  0  0  0  0  0  0  0
   48.2070   29.3420   47.1150 O   0  0  0  0  0  0  0  0  0  0  0  0
   48.5150   28.5490   45.9790 C   0  0  2  0  0  0  0  0  0  0  0  0
   48.1650   29.3160   44.8320 O   0  0  0  0  0  0  0  0  0  0  0  0
   45.5740   35.7600   43.2940 C   0  0  0  0  0  0  0  0  0  0  0  0
   46.2700   34.5700   43.5100 C   0  0  0  0  0  0  0  0  0  0  0  0
   46.0570   33.8740   44.6620 C   0  0  0  0  0  0  0  0  0  0  0  0
   45.1580   34.3960   45.5560 N   0  0  0  0  0  0  0  0  0  0  0  0
   44.4920   35.5420   45.3430 C   0  0  0  0  0  0  0  0  0  0  0  0
   44.7020   36.2040   44.2320 N   0  0  0  0  0  0  0  0  0  0  0  0
   47.1750   34.1710   42.5280 N   0  0  0  0  0  0  0  0  0  0  0  0
   48.5810   34.3660   42.6760 C   0  0  0  0  0  0  0  0  0  0  0  0
   49.4230   33.7240   41.6100 C   0  0  0  0  0  0  0  0  0  0  0  0
   48.9950   32.4600   41.1960 N   0  0  0  0  0  0  0  0  0  0  0  0
   47.6380   32.2930   41.0210 C   0  0  0  0  0  0  0  0  0  0  0  0
   46.8510   33.5530   41.3060 C   0  0  0  0  0  0  0  0  0  0  0  0
   47.6940   27.4180   46.0510 O   0  0  0  0  0  0  0  0  0  0  0  0
   48.5000   25.3560   47.9320 Cl  0  0  0  0  0  0  0  0  0  0  0  0
   46.9530   26.1740   47.8490 C   0  0  0  0  0  0  0  0  0  0  0  0
   46.6610   27.1580   46.9010 C   0  0  0  0  0  0  0  0  0  0  0  0
   45.4380   27.7950   46.8480 C   0  0  0  0  0  0  0  0  0  0  0  0
   44.5150   27.4120   47.7750 C   0  0  0  0  0  0  0  0  0  0  0  0
   44.7600   26.4510   48.7210 C   0  0  0  0  0  0  0  0  0  0  0  0
   43.5510   25.9770   49.9080 Cl  0  0  0  0  0  0  0  0  0  0  0  0
   45.9680   25.8220   48.7760 C   0  0  0  0  0  0  0  0  0  0  0  0
   46.1891   33.5133   47.1171 H   0  0  0  0  0  0  0  0  0  0  0  0
   47.1202   31.4679   43.5364 H   0  0  0  0  0  0  0  0  0  0  0  0
   47.0873   31.6884   48.4541 H   0  0  0  0  0  0  0  0  0  0  0  0
   49.5745   28.2569   45.9324 H   0  0  0  0  0  0  0  0  0  0  0  0
   45.7319   36.3338   42.3689 H   0  0  0  0  0  0  0  0  0  0  0  0
   43.7797   35.9201   46.0911 H   0  0  0  0  0  0  0  0  0  0  0  0
   48.7794   35.4479   42.6631 H   0  0  0  0  0  0  0  0  0  0  0  0
   48.8619   33.8838   43.6239 H   0  0  0  0  0  0  0  0  0  0  0  0
   49.4251   34.3871   40.7324 H   0  0  0  0  0  0  0  0  0  0  0  0
   50.4193   33.5794   42.0532 H   0  0  0  0  0  0  0  0  0  0  0  0
   49.4534   32.2542   40.2969 H   0  0  0  0  0  0  0  0  0  0  0  0
   47.4524   31.9906   39.9798 H   0  0  0  0  0  0  0  0  0  0  0  0
   47.3040   31.5253   41.7344 H   0  0  0  0  0  0  0  0  0  0  0  0
   47.0430   34.2707   40.4948 H   0  0  0  0  0  0  0  0  0  0  0  0
   45.7935   33.2573   41.3717 H   0  0  0  0  0  0  0  0  0  0  0  0
   45.2198   28.5698   46.0983 H   0  0  0  0  0  0  0  0  0  0  0  0
   43.5276   27.8967   47.7633 H   0  0  0  0  0  0  0  0  0  0  0  0
   46.1641   25.0514   49.5361 H   0  0  0  0  0  0  0  0  0  0  0  0
  1  6  2  0
  2  1  1  0
  3  2  2  0
  3  4  1  0
  4  5  2  0
  5  7  1  0
  5  6  1  0
  8 22  1  0
  8  7  1  0
  9  4  1  0
  9  8  1  0
 10 11  2  0
 10 15  1  0
 11 12  1  0
 12  2  1  0
 12 13  2  0
 14 13  1  0
 15 14  2  0
 16 17  1  0
 16 11  1  0
 18 17  1  0
 19 18  1  0
 20 19  1  0
 20 21  1  0
 21 16  1  0
 22 25  1  0
 24 23  1  0
 24 30  2  0
 25 24  1  0
 26 25  2  0
 26 27  1  0
 27 28  2  0
 28 30  1  0
 28 29  1  0
  1 31  1  0
  3 32  1  0
  6 33  1  0
  8 34  1  6
 10 35  1  0
 14 36  1  0
 17 37  1  0
 17 38  1  0
 18 39  1  0
 18 40  1  0
 19 41  1  0
 20 42  1  0
 20 43  1  0
 21 44  1  0
 21 45  1  0
 26 46  1  0
 27 47  1  0
 30 48  1  0
M  ISO  8  31  14  32  14  33  14  34  13  35  14  36  14  37  13  38  13
M  ISO  8  39  13  40  13  41   5  42  13  43  13  44  13  45  13  46  14
M  ISO  2  47  14  48  14
M  END
>  <minimizedAffinity>  (1) 
-5.7860446

>  <minimizedRMSD>  (1) 
4.57383347

$$$$
