
     RDKit          3D

 41 44  0  0  1  0  0  0  0  0999 V2000
   45.1150   36.0230   43.5080 C   0  0  0  0  0  0  0  0  0  0  0  0
   45.9120   34.9020   43.2790 C   0  0  0  0  0  0  0  0  0  0  0  0
   46.0420   33.9710   44.2650 C   0  0  0  0  0  0  0  0  0  0  0  0
   45.3700   34.2020   45.4370 N   0  0  0  0  0  0  0  0  0  0  0  0
   44.6100   35.2760   45.6490 C   0  0  0  0  0  0  0  0  0  0  0  0
   44.4860   36.1710   44.6950 N   0  0  0  0  0  0  0  0  0  0  0  0
   46.5510   34.8060   42.0430 N   0  0  0  0  0  0  0  0  0  0  0  0
   47.8800   35.2760   41.8340 C   0  0  0  0  0  0  0  0  0  0  0  0
   48.4660   34.9460   40.4940 C   0  0  0  0  0  0  0  0  0  0  0  0
   48.1630   33.6630   40.0310 N   0  0  0  0  0  0  0  0  0  0  0  0
   46.8700   33.2270   40.1870 C   0  0  0  0  0  0  0  0  0  0  0  0
   45.9920   34.2560   40.8690 C   0  0  0  0  0  0  0  0  0  0  0  0
   46.5220   32.0860   45.5880 C   0  0  0  0  0  0  0  0  0  0  0  0
   46.7400   32.7620   44.3690 C   0  0  0  0  0  0  0  0  0  0  0  0
   47.6380   32.0820   43.5830 C   0  0  0  0  0  0  0  0  0  0  0  0
   48.2600   30.9160   43.8930 C   0  0  0  0  0  0  0  0  0  0  0  0
   47.9900   30.3180   45.1200 C   0  0  0  0  0  0  0  0  0  0  0  0
   47.1070   30.9130   45.9760 C   0  0  0  0  0  0  0  0  0  0  0  0
   48.7710   29.1700   45.1330 O   0  0  0  0  0  0  0  0  0  0  0  0
   49.4720   29.0390   43.9130 C   0  0  2  0  0  0  0  0  0  0  0  0
   49.1650   30.1940   43.1350 O   0  0  0  0  0  0  0  0  0  0  0  0
   48.9260   27.9080   43.2620 O   0  0  0  0  0  0  0  0  0  0  0  0
   49.9130   26.9850   42.9400 C   0  0  0  0  0  0  0  0  0  0  0  0
   44.9984   36.7856   42.7239 H   0  0  0  0  0  0  0  0  0  0  0  0
   44.0930   35.4115   46.6105 H   0  0  0  0  0  0  0  0  0  0  0  0
   47.8761   36.3704   41.9444 H   0  0  0  0  0  0  0  0  0  0  0  0
   48.5075   34.7638   42.5782 H   0  0  0  0  0  0  0  0  0  0  0  0
   48.0848   35.6743   39.7631 H   0  0  0  0  0  0  0  0  0  0  0  0
   49.5590   34.9873   40.6109 H   0  0  0  0  0  0  0  0  0  0  0  0
   48.7751   33.0014   40.5296 H   0  0  0  0  0  0  0  0  0  0  0  0
   46.4496   33.0058   39.1948 H   0  0  0  0  0  0  0  0  0  0  0  0
   46.8929   32.3305   40.8240 H   0  0  0  0  0  0  0  0  0  0  0  0
   45.8053   35.0753   40.1591 H   0  0  0  0  0  0  0  0  0  0  0  0
   45.0709   33.7358   41.1708 H   0  0  0  0  0  0  0  0  0  0  0  0
   45.8142   32.5465   46.2930 H   0  0  0  0  0  0  0  0  0  0  0  0
   47.8768   32.5263   42.6055 H   0  0  0  0  0  0  0  0  0  0  0  0
   46.8731   30.4605   46.9510 H   0  0  0  0  0  0  0  0  0  0  0  0
   50.5581   28.9369   44.0540 H   0  0  0  0  0  0  0  0  0  0  0  0
   50.3491   26.5772   43.8639 H   0  0  0  0  0  0  0  0  0  0  0  0
   49.4723   26.1675   42.3506 H   0  0  0  0  0  0  0  0  0  0  0  0
   50.6992   27.4795   42.3506 H   0  0  0  0  0  0  0  0  0  0  0  0
  1  6  2  0
  2  1  1  0
  2  3  2  0
  3 14  1  0
  3  4  1  0
  4  5  2  0
  6  5  1  0
  7  2  1  0
  8  7  1  0
  9  8  1  0
 10 11  1  0
 10  9  1  0
 11 12  1  0
 12  7  1  0
 13 18  2  0
 14 13  1  0
 15 16  1  0
 15 14  2  0
 16 17  2  0
 17 19  1  0
 17 18  1  0
 20 19  1  0
 21 16  1  0
 21 20  1  0
 22 20  1  0
 23 22  1  0
  1 24  1  0
  5 25  1  0
  8 26  1  0
  8 27  1  0
  9 28  1  0
  9 29  1  0
 10 30  1  0
 11 31  1  0
 11 32  1  0
 12 33  1  0
 12 34  1  0
 13 35  1  0
 15 36  1  0
 18 37  1  0
 20 38  1  1
 23 39  1  0
 23 40  1  0
 23 41  1  0
M  ISO  8  24  14  25  14  26  13  27  13  28  13  29  13  30   5  31  13
M  ISO  8  32  13  33  13  34  13  35  14  36  14  37  14  38  13  39   8
M  ISO  2  40   8  41   8
M  END
>  <minimizedAffinity>  (1) 
-4.87399817

>  <minimizedRMSD>  (1) 
0.088934049

$$$$
