
     RDKit          3D

 46 50  0  0  1  0  0  0  0  0999 V2000
   45.2840   35.9930   43.4320 C   0  0  0  0  0  0  0  0  0  0  0  0
   46.1070   34.8940   43.1840 C   0  0  0  0  0  0  0  0  0  0  0  0
   46.1960   33.9090   44.1150 C   0  0  0  0  0  0  0  0  0  0  0  0
   45.4630   34.0670   45.2360 N   0  0  0  0  0  0  0  0  0  0  0  0
   44.6710   35.1040   45.4960 C   0  0  0  0  0  0  0  0  0  0  0  0
   44.5870   36.0600   44.5940 N   0  0  0  0  0  0  0  0  0  0  0  0
   46.7730   34.8600   41.9580 N   0  0  0  0  0  0  0  0  0  0  0  0
   48.0270   35.4310   41.7370 C   0  0  0  0  0  0  0  0  0  0  0  0
   48.6310   35.1250   40.3840 C   0  0  0  0  0  0  0  0  0  0  0  0
   48.4450   33.8340   39.9390 N   0  0  0  0  0  0  0  0  0  0  0  0
   47.1840   33.2740   40.0990 C   0  0  0  0  0  0  0  0  0  0  0  0
   46.2450   34.2370   40.7770 C   0  0  0  0  0  0  0  0  0  0  0  0
   46.4540   31.8320   45.2070 C   0  0  0  0  0  0  0  0  0  0  0  0
   46.9300   32.7170   44.2070 C   0  0  0  0  0  0  0  0  0  0  0  0
   48.0170   32.1880   43.5430 C   0  0  0  0  0  0  0  0  0  0  0  0
   48.6070   30.9850   43.7660 C   0  0  0  0  0  0  0  0  0  0  0  0
   48.0970   30.1740   44.7480 C   0  0  0  0  0  0  0  0  0  0  0  0
   47.0110   30.6080   45.4710 C   0  0  0  0  0  0  0  0  0  0  0  0
   48.8810   29.0400   44.7460 O   0  0  0  0  0  0  0  0  0  0  0  0
   49.8830   29.1590   43.7690 C   0  0  2  0  0  0  0  0  0  0  0  0
   49.6870   30.4150   43.1400 O   0  0  0  0  0  0  0  0  0  0  0  0
   49.6090   28.1790   42.7770 O   0  0  0  0  0  0  0  0  0  0  0  0
   50.4130   28.1930   41.6440 C   0  0  0  0  0  0  0  0  0  0  0  0
   51.7320   27.8730   41.9790 C   0  0  0  0  0  0  0  0  0  0  0  0
   52.7380   27.8190   41.0220 C   0  0  0  0  0  0  0  0  0  0  0  0
   52.4020   28.0890   39.7390 N   0  0  0  0  0  0  0  0  0  0  0  0
   51.1110   28.3970   39.4500 C   0  0  0  0  0  0  0  0  0  0  0  0
   50.1300   28.4530   40.3590 N   0  0  0  0  0  0  0  0  0  0  0  0
   45.2008   36.8005   42.6897 H   0  0  0  0  0  0  0  0  0  0  0  0
   44.1032   35.1612   46.4364 H   0  0  0  0  0  0  0  0  0  0  0  0
   47.9275   36.5226   41.8289 H   0  0  0  0  0  0  0  0  0  0  0  0
   48.7040   34.9938   42.4857 H   0  0  0  0  0  0  0  0  0  0  0  0
   48.1810   35.8073   39.6478 H   0  0  0  0  0  0  0  0  0  0  0  0
   49.7173   35.2565   40.4967 H   0  0  0  0  0  0  0  0  0  0  0  0
   49.1144   33.2349   40.4429 H   0  0  0  0  0  0  0  0  0  0  0  0
   46.7787   33.0131   39.1102 H   0  0  0  0  0  0  0  0  0  0  0  0
   47.2776   32.3762   40.7277 H   0  0  0  0  0  0  0  0  0  0  0  0
   45.9882   35.0287   40.0578 H   0  0  0  0  0  0  0  0  0  0  0  0
   45.3750   33.6465   41.1002 H   0  0  0  0  0  0  0  0  0  0  0  0
   45.5867   32.1462   45.8062 H   0  0  0  0  0  0  0  0  0  0  0  0
   48.4537   32.8078   42.7461 H   0  0  0  0  0  0  0  0  0  0  0  0
   46.5886   29.9717   46.2626 H   0  0  0  0  0  0  0  0  0  0  0  0
   50.8898   29.0518   44.1989 H   0  0  0  0  0  0  0  0  0  0  0  0
   51.9802   27.6581   43.0289 H   0  0  0  0  0  0  0  0  0  0  0  0
   53.7723   27.5654   41.2977 H   0  0  0  0  0  0  0  0  0  0  0  0
   50.8554   28.6142   38.4024 H   0  0  0  0  0  0  0  0  0  0  0  0
  1  6  2  0
  2  1  1  0
  2  3  2  0
  3 14  1  0
  3  4  1  0
  4  5  2  0
  6  5  1  0
  7  2  1  0
  8  7  1  0
  9  8  1  0
 10 11  1  0
 10  9  1  0
 11 12  1  0
 12  7  1  0
 13 18  2  0
 14 13  1  0
 15 16  1  0
 15 14  2  0
 16 17  2  0
 17 18  1  0
 19 17  1  0
 20 19  1  0
 21 16  1  0
 21 20  1  0
 22 20  1  0
 23 24  2  0
 23 22  1  0
 25 24  1  0
 26 25  2  0
 27 26  1  0
 27 28  2  0
 28 23  1  0
  1 29  1  0
  5 30  1  0
  8 31  1  0
  8 32  1  0
  9 33  1  0
  9 34  1  0
 10 35  1  0
 11 36  1  0
 11 37  1  0
 12 38  1  0
 12 39  1  0
 13 40  1  0
 15 41  1  0
 18 42  1  0
 20 43  1  1
 24 44  1  0
 25 45  1  0
 27 46  1  0
M  ISO  8  29  14  30  14  31  13  32  13  33  13  34  13  35   5  36  13
M  ISO  8  37  13  38  13  39  13  40  14  41  14  42  14  43  13  44  14
M  ISO  2  45  14  46  14
M  END
>  <minimizedAffinity>  (1) 
-4.79524183

>  <minimizedRMSD>  (1) 
1.5869689

$$$$
