
     RDKit          3D

 51 55  0  0  1  0  0  0  0  0999 V2000
   45.2310   35.9850   43.4670 C   0  0  0  0  0  0  0  0  0  0  0  0
   46.0600   34.8890   43.2200 C   0  0  0  0  0  0  0  0  0  0  0  0
   46.1750   33.9100   44.1630 C   0  0  0  0  0  0  0  0  0  0  0  0
   45.4540   34.0720   45.3160 N   0  0  0  0  0  0  0  0  0  0  0  0
   44.6620   35.1190   45.5520 C   0  0  0  0  0  0  0  0  0  0  0  0
   44.5540   36.0600   44.6380 N   0  0  0  0  0  0  0  0  0  0  0  0
   46.7490   34.8730   42.0080 N   0  0  0  0  0  0  0  0  0  0  0  0
   48.0270   35.4870   41.8570 C   0  0  0  0  0  0  0  0  0  0  0  0
   48.7040   35.2270   40.5440 C   0  0  0  0  0  0  0  0  0  0  0  0
   48.5600   33.9270   40.0480 N   0  0  0  0  0  0  0  0  0  0  0  0
   47.3040   33.3530   40.1580 C   0  0  0  0  0  0  0  0  0  0  0  0
   46.3020   34.2810   40.8080 C   0  0  0  0  0  0  0  0  0  0  0  0
   46.4990   31.8790   45.3010 C   0  0  0  0  0  0  0  0  0  0  0  0
   46.8910   32.7140   44.2330 C   0  0  0  0  0  0  0  0  0  0  0  0
   47.9310   32.1560   43.5300 C   0  0  0  0  0  0  0  0  0  0  0  0
   48.5350   30.9670   43.7880 C   0  0  0  0  0  0  0  0  0  0  0  0
   48.0870   30.2080   44.8650 C   0  0  0  0  0  0  0  0  0  0  0  0
   47.0520   30.6740   45.6290 C   0  0  0  0  0  0  0  0  0  0  0  0
   48.8990   29.0800   44.8550 O   0  0  0  0  0  0  0  0  0  0  0  0
   49.7740   29.1110   43.7530 C   0  0  2  0  0  0  0  0  0  0  0  0
   49.5780   30.3620   43.1140 O   0  0  0  0  0  0  0  0  0  0  0  0
   49.3750   28.0780   42.8800 O   0  0  0  0  0  0  0  0  0  0  0  0
   50.4150   27.3010   42.4200 C   0  0  0  0  0  0  0  0  0  0  0  0
   50.6910   27.7520   40.9990 C   0  0  0  0  0  0  0  0  0  0  0  0
   52.1980   27.6770   40.8140 C   0  0  0  0  0  0  0  0  0  0  0  0
   52.7220   27.0270   42.0760 C   0  0  0  0  0  0  0  0  0  0  0  0
   51.7230   27.5610   43.0940 C   0  0  0  0  0  0  0  0  0  0  0  0
   45.1283   36.7821   42.7159 H   0  0  0  0  0  0  0  0  0  0  0  0
   44.1063   35.1951   46.4982 H   0  0  0  0  0  0  0  0  0  0  0  0
   47.8982   36.5741   41.9652 H   0  0  0  0  0  0  0  0  0  0  0  0
   48.6737   35.0448   42.6292 H   0  0  0  0  0  0  0  0  0  0  0  0
   48.2861   35.9229   39.8017 H   0  0  0  0  0  0  0  0  0  0  0  0
   49.7802   35.3691   40.7215 H   0  0  0  0  0  0  0  0  0  0  0  0
   49.2237   33.3244   40.5553 H   0  0  0  0  0  0  0  0  0  0  0  0
   46.9444   33.0938   39.1513 H   0  0  0  0  0  0  0  0  0  0  0  0
   47.3972   32.4606   40.7943 H   0  0  0  0  0  0  0  0  0  0  0  0
   46.0648   35.0847   40.0954 H   0  0  0  0  0  0  0  0  0  0  0  0
   45.4275   33.6664   41.0679 H   0  0  0  0  0  0  0  0  0  0  0  0
   45.6684   32.2325   45.9296 H   0  0  0  0  0  0  0  0  0  0  0  0
   48.3128   32.7294   42.6724 H   0  0  0  0  0  0  0  0  0  0  0  0
   46.6754   30.0938   46.4843 H   0  0  0  0  0  0  0  0  0  0  0  0
   50.8274   28.9823   44.0426 H   0  0  0  0  0  0  0  0  0  0  0  0
   50.1098   26.2554   42.5736 H   0  0  0  0  0  0  0  0  0  0  0  0
   50.1856   27.0870   40.2832 H   0  0  0  0  0  0  0  0  0  0  0  0
   50.3162   28.7710   40.8225 H   0  0  0  0  0  0  0  0  0  0  0  0
   52.4485   27.0670   39.9336 H   0  0  0  0  0  0  0  0  0  0  0  0
   52.6414   28.6701   40.6490 H   0  0  0  0  0  0  0  0  0  0  0  0
   52.6898   25.9294   42.0117 H   0  0  0  0  0  0  0  0  0  0  0  0
   53.7748   27.2492   42.3047 H   0  0  0  0  0  0  0  0  0  0  0  0
   51.8724   28.6360   43.2733 H   0  0  0  0  0  0  0  0  0  0  0  0
   51.8096   27.0920   44.0852 H   0  0  0  0  0  0  0  0  0  0  0  0
  1  6  2  0
  2  1  1  0
  2  3  2  0
  3 14  1  0
  3  4  1  0
  4  5  2  0
  6  5  1  0
  7  2  1  0
  8  7  1  0
  9  8  1  0
 10 11  1  0
 10  9  1  0
 11 12  1  0
 12  7  1  0
 13 18  2  0
 14 13  1  0
 15 16  1  0
 15 14  2  0
 16 17  2  0
 17 18  1  0
 19 17  1  0
 20 19  1  0
 21 20  1  0
 21 16  1  0
 22 20  1  0
 23 22  1  0
 23 27  1  0
 24 23  1  0
 25 24  1  0
 25 26  1  0
 26 27  1  0
  1 28  1  0
  5 29  1  0
  8 30  1  0
  8 31  1  0
  9 32  1  0
  9 33  1  0
 10 34  1  0
 11 35  1  0
 11 36  1  0
 12 37  1  0
 12 38  1  0
 13 39  1  0
 15 40  1  0
 18 41  1  0
 20 42  1  1
 23 43  1  0
 24 44  1  0
 24 45  1  0
 25 46  1  0
 25 47  1  0
 26 48  1  0
 26 49  1  0
 27 50  1  0
 27 51  1  0
M  ISO  8  28  14  29  14  30  13  31  13  32  13  33  13  34   5  35  13
M  ISO  8  36  13  37  13  38  13  39  14  40  14  41  14  42  13  43  13
M  ISO  8  44  13  45  13  46  13  47  13  48  13  49  13  50  13  51  13
M  END
>  <minimizedAffinity>  (1) 
-4.76769781

>  <minimizedRMSD>  (1) 
0.759051621

$$$$
