
     RDKit          3D

 45 49  0  0  1  0  0  0  0  0999 V2000
   45.2280   36.0230   43.4560 C   0  0  0  0  0  0  0  0  0  0  0  0
   46.0290   34.9070   43.2110 C   0  0  0  0  0  0  0  0  0  0  0  0
   46.1180   33.9270   44.1520 C   0  0  0  0  0  0  0  0  0  0  0  0
   45.4020   34.1050   45.3090 N   0  0  0  0  0  0  0  0  0  0  0  0
   44.6340   35.1820   45.5390 C   0  0  0  0  0  0  0  0  0  0  0  0
   44.5550   36.1130   44.6270 N   0  0  0  0  0  0  0  0  0  0  0  0
   46.7300   34.8770   42.0060 N   0  0  0  0  0  0  0  0  0  0  0  0
   48.0110   35.4900   41.8600 C   0  0  0  0  0  0  0  0  0  0  0  0
   48.6990   35.2130   40.5540 C   0  0  0  0  0  0  0  0  0  0  0  0
   48.5550   33.9080   40.0700 N   0  0  0  0  0  0  0  0  0  0  0  0
   47.3040   33.3400   40.1820 C   0  0  0  0  0  0  0  0  0  0  0  0
   46.2930   34.2710   40.8120 C   0  0  0  0  0  0  0  0  0  0  0  0
   46.2770   31.8220   45.1820 C   0  0  0  0  0  0  0  0  0  0  0  0
   46.8030   32.7110   44.2230 C   0  0  0  0  0  0  0  0  0  0  0  0
   47.9140   32.1820   43.6160 C   0  0  0  0  0  0  0  0  0  0  0  0
   48.4700   30.9700   43.8760 C   0  0  0  0  0  0  0  0  0  0  0  0
   47.8860   30.1620   44.8450 C   0  0  0  0  0  0  0  0  0  0  0  0
   46.7800   30.5900   45.5020 C   0  0  0  0  0  0  0  0  0  0  0  0
   48.6870   29.0260   44.8740 O   0  0  0  0  0  0  0  0  0  0  0  0
   49.7030   29.1110   43.8870 C   0  0  2  0  0  0  0  0  0  0  0  0
   49.5830   30.3930   43.2850 O   0  0  0  0  0  0  0  0  0  0  0  0
   49.4070   28.1170   42.9380 O   0  0  0  0  0  0  0  0  0  0  0  0
   49.6860   28.1810   41.5900 C   0  0  0  0  0  0  0  0  0  0  0  0
   50.9790   27.9520   41.1120 C   0  0  0  0  0  0  0  0  0  0  0  0
   50.8960   28.0900   39.7830 N   0  0  0  0  0  0  0  0  0  0  0  0
   49.6400   28.3890   39.4050 C   0  0  0  0  0  0  0  0  0  0  0  0
   48.8850   28.4450   40.5410 N   0  0  0  0  0  0  0  0  0  0  0  0
   45.1443   36.8220   42.7047 H   0  0  0  0  0  0  0  0  0  0  0  0
   44.0786   35.2788   46.4835 H   0  0  0  0  0  0  0  0  0  0  0  0
   47.8818   36.5783   41.9542 H   0  0  0  0  0  0  0  0  0  0  0  0
   48.6509   35.0583   42.6437 H   0  0  0  0  0  0  0  0  0  0  0  0
   48.2898   35.9024   39.8008 H   0  0  0  0  0  0  0  0  0  0  0  0
   49.7742   35.3529   40.7396 H   0  0  0  0  0  0  0  0  0  0  0  0
   49.2166   33.3095   40.5848 H   0  0  0  0  0  0  0  0  0  0  0  0
   46.9510   33.0659   39.1769 H   0  0  0  0  0  0  0  0  0  0  0  0
   47.3967   32.4601   40.8355 H   0  0  0  0  0  0  0  0  0  0  0  0
   46.0579   35.0653   40.0882 H   0  0  0  0  0  0  0  0  0  0  0  0
   45.4178   33.6573   41.0716 H   0  0  0  0  0  0  0  0  0  0  0  0
   45.3776   32.1492   45.7243 H   0  0  0  0  0  0  0  0  0  0  0  0
   48.4009   32.7979   42.8455 H   0  0  0  0  0  0  0  0  0  0  0  0
   46.3008   29.9652   46.2700 H   0  0  0  0  0  0  0  0  0  0  0  0
   50.7170   28.9756   44.2913 H   0  0  0  0  0  0  0  0  0  0  0  0
   51.8749   27.7097   41.7025 H   0  0  0  0  0  0  0  0  0  0  0  0
   51.6894   27.9815   39.1351 H   0  0  0  0  0  0  0  0  0  0  0  0
   49.2883   28.5565   38.3763 H   0  0  0  0  0  0  0  0  0  0  0  0
  1  6  2  0
  2  1  1  0
  2  3  2  0
  3 14  1  0
  3  4  1  0
  4  5  2  0
  6  5  1  0
  7  2  1  0
  8  7  1  0
  9  8  1  0
 10 11  1  0
 10  9  1  0
 11 12  1  0
 12  7  1  0
 13 18  2  0
 14 13  1  0
 15 16  1  0
 15 14  2  0
 16 17  2  0
 17 19  1  0
 17 18  1  0
 20 19  1  0
 21 16  1  0
 21 20  1  0
 22 20  1  0
 23 22  1  0
 24 23  2  0
 25 24  1  0
 26 25  1  0
 26 27  2  0
 27 23  1  0
  1 28  1  0
  5 29  1  0
  8 30  1  0
  8 31  1  0
  9 32  1  0
  9 33  1  0
 10 34  1  0
 11 35  1  0
 11 36  1  0
 12 37  1  0
 12 38  1  0
 13 39  1  0
 15 40  1  0
 18 41  1  0
 20 42  1  1
 24 43  1  0
 25 44  1  0
 26 45  1  0
M  ISO  8  28  14  29  14  30  13  31  13  32  13  33  13  34   5  35  13
M  ISO  8  36  13  37  13  38  13  39  14  40  14  41  14  42  13  43  14
M  ISO  2  44   9  45  14
M  END
>  <minimizedAffinity>  (1) 
-4.71733046

>  <minimizedRMSD>  (1) 
1.4353261

$$$$
