
     RDKit          3D

 50 54  0  0  1  0  0  0  0  0999 V2000
   46.9910   32.9920   38.7250 N   0  0  0  0  0  0  0  0  0  0  0  0
   45.9770   33.2000   37.6930 C   0  0  0  0  0  0  0  0  0  0  0  0
   45.3100   31.9260   37.2690 C   0  0  0  0  0  0  0  0  0  0  0  0
   46.2650   31.0190   36.6390 N   0  0  0  0  0  0  0  0  0  0  0  0
   47.6050   31.4370   37.0060 C   0  0  0  0  0  0  0  0  0  0  0  0
   47.6250   31.7050   38.5220 C   0  0  1  0  0  0  0  0  0  0  0  0
   49.0180   31.5840   38.9180 C   0  0  0  0  0  0  0  0  0  0  0  0
   50.0670   31.8190   38.0570 C   0  0  0  0  0  0  0  0  0  0  0  0
   51.4080   31.6860   38.3410 C   0  0  0  0  0  0  0  0  0  0  0  0
   51.7770   31.2780   39.6060 C   0  0  0  0  0  0  0  0  0  0  0  0
   50.7840   31.0230   40.5190 C   0  0  0  0  0  0  0  0  0  0  0  0
   51.1990   30.6210   41.7700 C   0  0  0  0  0  0  0  0  0  0  0  0
   50.2680   30.3490   42.7490 C   0  0  0  0  0  0  0  0  0  0  0  0
   48.9160   30.4990   42.4150 C   0  0  0  0  0  0  0  0  0  0  0  0
   48.5700   30.9030   41.1530 C   0  0  0  0  0  0  0  0  0  0  0  0
   49.4660   31.1830   40.1510 C   0  0  0  0  0  0  0  0  0  0  0  0
   45.0860   32.8330   41.2150 Br  0  0  0  0  0  0  0  0  0  0  0  0
   46.6400   33.9300   40.9740 C   0  0  0  0  0  0  0  0  0  0  0  0
   47.0180   34.7690   41.9780 C   0  0  0  0  0  0  0  0  0  0  0  0
   48.1420   35.6000   41.8240 C   0  0  0  0  0  0  0  0  0  0  0  0
   48.8340   35.5370   40.6400 C   0  0  0  0  0  0  0  0  0  0  0  0
   48.4030   34.6660   39.6560 C   0  0  0  0  0  0  0  0  0  0  0  0
   47.3310   33.8620   39.7870 C   0  0  0  0  0  0  0  0  0  0  0  0
   45.7970   33.9400   45.3160 C   0  0  0  0  0  0  0  0  0  0  0  0
   44.7860   34.9130   45.5560 C   0  0  0  0  0  0  0  0  0  0  0  0
   44.5550   35.8410   44.5390 C   0  0  0  0  0  0  0  0  0  0  0  0
   45.2860   35.7650   43.4100 N   0  0  0  0  0  0  0  0  0  0  0  0
   46.2560   34.8080   43.2160 C   0  0  0  0  0  0  0  0  0  0  0  0
   46.4870   33.9130   44.1840 N   0  0  0  0  0  0  0  0  0  0  0  0
   45.2105   33.8841   38.0861 H   0  0  0  0  0  0  0  0  0  0  0  0
   46.4833   33.6184   36.8106 H   0  0  0  0  0  0  0  0  0  0  0  0
   44.8774   31.4351   38.1532 H   0  0  0  0  0  0  0  0  0  0  0  0
   44.5237   32.1686   36.5390 H   0  0  0  0  0  0  0  0  0  0  0  0
   46.1571   31.0566   35.6154 H   0  0  0  0  0  0  0  0  0  0  0  0
   48.3242   30.6423   36.7585 H   0  0  0  0  0  0  0  0  0  0  0  0
   47.8843   32.3470   36.4548 H   0  0  0  0  0  0  0  0  0  0  0  0
   47.0615   31.0052   39.1566 H   0  0  0  0  0  0  0  0  0  0  0  0
   49.8074   32.1461   37.0393 H   0  0  0  0  0  0  0  0  0  0  0  0
   52.1684   31.9005   37.5756 H   0  0  0  0  0  0  0  0  0  0  0  0
   52.8369   31.1603   39.8756 H   0  0  0  0  0  0  0  0  0  0  0  0
   52.2724   30.5173   41.9870 H   0  0  0  0  0  0  0  0  0  0  0  0
   50.5750   30.0263   43.7548 H   0  0  0  0  0  0  0  0  0  0  0  0
   48.1359   30.2933   43.1628 H   0  0  0  0  0  0  0  0  0  0  0  0
   47.4990   31.0107   40.9262 H   0  0  0  0  0  0  0  0  0  0  0  0
   48.4575   36.2805   42.6286 H   0  0  0  0  0  0  0  0  0  0  0  0
   49.7185   36.1701   40.4763 H   0  0  0  0  0  0  0  0  0  0  0  0
   48.9680   34.6279   38.7130 H   0  0  0  0  0  0  0  0  0  0  0  0
   46.0118   33.1897   46.0912 H   0  0  0  0  0  0  0  0  0  0  0  0
   44.2152   34.9327   46.4961 H   0  0  0  0  0  0  0  0  0  0  0  0
   43.7888   36.6213   44.6576 H   0  0  0  0  0  0  0  0  0  0  0  0
  1 23  1  0
  2  1  1  0
  3  2  1  0
  4  5  1  0
  4  3  1  0
  5  6  1  0
  6  1  1  0
  6  7  1  0
  7 16  2  0
  8  9  2  0
  8  7  1  0
  9 10  1  0
 10 11  2  0
 11 12  1  0
 12 13  2  0
 14 13  1  0
 15 14  2  0
 16 11  1  0
 16 15  1  0
 18 17  1  0
 18 19  2  0
 19 28  1  0
 20 19  1  0
 21 20  2  0
 22 23  2  0
 22 21  1  0
 23 18  1  0
 24 25  2  0
 26 25  1  0
 27 26  2  0
 28 27  1  0
 28 29  2  0
 29 24  1  0
  2 30  1  0
  2 31  1  0
  3 32  1  0
  3 33  1  0
  4 34  1  0
  5 35  1  0
  5 36  1  0
  6 37  1  1
  8 38  1  0
  9 39  1  0
 10 40  1  0
 12 41  1  0
 13 42  1  0
 14 43  1  0
 15 44  1  0
 20 45  1  0
 21 46  1  0
 22 47  1  0
 24 48  1  0
 25 49  1  0
 26 50  1  0
M  ISO  8  30  13  31  13  32  13  33  13  34   5  35  13  36  13  37  13
M  ISO  8  38  14  39  14  40  14  41  14  42  14  43  14  44  14  45  14
M  ISO  5  46  14  47  14  48  14  49  14  50  14
M  END
>  <minimizedAffinity>  (1) 
-6.32826567

>  <minimizedRMSD>  (1) 
0.6764099

$$$$
