
     RDKit          3D

 27 29  0  0  0  0  0  0  0  0999 V2000
   44.8160   33.0940   41.1350 Cl  0  0  0  0  0  0  0  0  0  0  0  0
   46.3260   33.9270   40.9160 C   0  0  0  0  0  0  0  0  0  0  0  0
   46.8330   34.7110   41.9070 C   0  0  0  0  0  0  0  0  0  0  0  0
   48.0470   35.4030   41.7680 C   0  0  0  0  0  0  0  0  0  0  0  0
   48.6940   35.2370   40.5620 C   0  0  0  0  0  0  0  0  0  0  0  0
   48.1900   34.4500   39.5680 C   0  0  0  0  0  0  0  0  0  0  0  0
   46.9970   33.7810   39.7230 C   0  0  0  0  0  0  0  0  0  0  0  0
   45.6070   34.0530   45.3170 C   0  0  0  0  0  0  0  0  0  0  0  0
   44.7140   35.1100   45.5390 C   0  0  0  0  0  0  0  0  0  0  0  0
   44.5420   36.0440   44.5090 C   0  0  0  0  0  0  0  0  0  0  0  0
   45.2440   35.8750   43.3600 N   0  0  0  0  0  0  0  0  0  0  0  0
   46.0920   34.8490   43.1770 C   0  0  0  0  0  0  0  0  0  0  0  0
   46.2820   33.9260   44.1570 N   0  0  0  0  0  0  0  0  0  0  0  0
   46.4230   32.9290   38.6840 C   0  0  0  0  0  0  0  0  0  0  0  0
   46.7190   31.5960   38.4640 C   0  0  0  0  0  0  0  0  0  0  0  0
   45.9920   31.1600   37.4230 N   0  0  0  0  0  0  0  0  0  0  0  0
   45.2570   32.2170   37.0110 C   0  0  0  0  0  0  0  0  0  0  0  0
   45.4940   33.2980   37.7520 N   0  0  0  0  0  0  0  0  0  0  0  0
   48.4552   36.0364   42.5694 H   0  0  0  0  0  0  0  0  0  0  0  0
   49.6491   35.7567   40.3955 H   0  0  0  0  0  0  0  0  0  0  0  0
   48.7474   34.3482   38.6252 H   0  0  0  0  0  0  0  0  0  0  0  0
   45.7613   33.3070   46.1105 H   0  0  0  0  0  0  0  0  0  0  0  0
   44.1671   35.2031   46.4889 H   0  0  0  0  0  0  0  0  0  0  0  0
   43.8543   36.8941   44.6288 H   0  0  0  0  0  0  0  0  0  0  0  0
   47.4319   30.9930   39.0456 H   0  0  0  0  0  0  0  0  0  0  0  0
   45.9939   30.2121   37.0199 H   0  0  0  0  0  0  0  0  0  0  0  0
   44.5507   32.1879   36.1682 H   0  0  0  0  0  0  0  0  0  0  0  0
  2  1  1  0
  2  3  2  0
  3 12  1  0
  4  3  1  0
  5  4  2  0
  6  7  2  0
  6  5  1  0
  7  2  1  0
  8  9  2  0
 10  9  1  0
 11 10  2  0
 12 11  1  0
 12 13  2  0
 13  8  1  0
 14  7  1  0
 15 14  2  0
 16 15  1  0
 17 16  1  0
 17 18  2  0
 18 14  1  0
  4 19  1  0
  5 20  1  0
  6 21  1  0
  8 22  1  0
  9 23  1  0
 10 24  1  0
 15 25  1  0
 16 26  1  0
 17 27  1  0
M  ISO  8  19  14  20  14  21  14  22  14  23  14  24  14  25  14  26   9
M  ISO  1  27  14
M  END
>  <minimizedAffinity>  (1) 
-5.30439854

>  <minimizedRMSD>  (1) 
0.0874785334

$$$$
