
     RDKit          3D

 44 47  0  0  1  0  0  0  0  0999 V2000
   45.1010   36.0230   43.5020 C   0  0  0  0  0  0  0  0  0  0  0  0
   45.9000   34.9010   43.2850 C   0  0  0  0  0  0  0  0  0  0  0  0
   46.0390   33.9750   44.2740 C   0  0  0  0  0  0  0  0  0  0  0  0
   45.3720   34.2120   45.4440 N   0  0  0  0  0  0  0  0  0  0  0  0
   44.6060   35.2890   45.6530 C   0  0  0  0  0  0  0  0  0  0  0  0
   44.4780   36.1730   44.6960 N   0  0  0  0  0  0  0  0  0  0  0  0
   46.5440   34.8070   42.0500 N   0  0  0  0  0  0  0  0  0  0  0  0
   47.8760   35.2830   41.8520 C   0  0  0  0  0  0  0  0  0  0  0  0
   48.4750   34.9530   40.5210 C   0  0  0  0  0  0  0  0  0  0  0  0
   48.1780   33.6710   40.0360 N   0  0  0  0  0  0  0  0  0  0  0  0
   46.8810   33.2310   40.1990 C   0  0  0  0  0  0  0  0  0  0  0  0
   45.9990   34.2580   40.8740 C   0  0  0  0  0  0  0  0  0  0  0  0
   46.5240   32.0980   45.6050 C   0  0  0  0  0  0  0  0  0  0  0  0
   46.7360   32.7680   44.3800 C   0  0  0  0  0  0  0  0  0  0  0  0
   47.6290   32.0850   43.5940 C   0  0  0  0  0  0  0  0  0  0  0  0
   48.2530   30.9210   43.9080 C   0  0  0  0  0  0  0  0  0  0  0  0
   47.9910   30.3300   45.1370 C   0  0  0  0  0  0  0  0  0  0  0  0
   47.1130   30.9290   45.9950 C   0  0  0  0  0  0  0  0  0  0  0  0
   48.7750   29.1850   45.1530 O   0  0  0  0  0  0  0  0  0  0  0  0
   49.4700   29.0490   43.9290 C   0  0  2  0  0  0  0  0  0  0  0  0
   49.1570   30.1980   43.1450 O   0  0  0  0  0  0  0  0  0  0  0  0
   48.9240   27.9120   43.2880 O   0  0  0  0  0  0  0  0  0  0  0  0
   49.6780   26.7770   43.5620 C   0  0  0  0  0  0  0  0  0  0  0  0
   51.1400   27.1360   43.3320 C   0  0  0  0  0  0  0  0  0  0  0  0
   44.9777   36.7785   42.7121 H   0  0  0  0  0  0  0  0  0  0  0  0
   44.0913   35.4295   46.6150 H   0  0  0  0  0  0  0  0  0  0  0  0
   47.8666   36.3777   41.9598 H   0  0  0  0  0  0  0  0  0  0  0  0
   48.4985   34.7750   42.6033 H   0  0  0  0  0  0  0  0  0  0  0  0
   48.1065   35.6877   39.7899 H   0  0  0  0  0  0  0  0  0  0  0  0
   49.5657   34.9826   40.6603 H   0  0  0  0  0  0  0  0  0  0  0  0
   48.7967   33.0038   40.5188 H   0  0  0  0  0  0  0  0  0  0  0  0
   46.4599   33.0010   39.2091 H   0  0  0  0  0  0  0  0  0  0  0  0
   46.9098   32.3407   40.8444 H   0  0  0  0  0  0  0  0  0  0  0  0
   45.8184   35.0776   40.1629 H   0  0  0  0  0  0  0  0  0  0  0  0
   45.0766   33.7360   41.1684 H   0  0  0  0  0  0  0  0  0  0  0  0
   45.8187   32.5608   46.3109 H   0  0  0  0  0  0  0  0  0  0  0  0
   47.8624   32.5237   42.6127 H   0  0  0  0  0  0  0  0  0  0  0  0
   46.8863   30.4818   46.9741 H   0  0  0  0  0  0  0  0  0  0  0  0
   50.5572   28.9514   44.0651 H   0  0  0  0  0  0  0  0  0  0  0  0
   49.5265   26.4680   44.6068 H   0  0  0  0  0  0  0  0  0  0  0  0
   49.3755   25.9430   42.9116 H   0  0  0  0  0  0  0  0  0  0  0  0
   51.6441   27.2598   44.3018 H   0  0  0  0  0  0  0  0  0  0  0  0
   51.6301   26.3315   42.7640 H   0  0  0  0  0  0  0  0  0  0  0  0
   51.2018   28.0760   42.7640 H   0  0  0  0  0  0  0  0  0  0  0  0
  1  6  2  0
  2  1  1  0
  2  3  2  0
  3 14  1  0
  3  4  1  0
  4  5  2  0
  6  5  1  0
  7  2  1  0
  8  7  1  0
  9  8  1  0
 10 11  1  0
 10  9  1  0
 11 12  1  0
 12  7  1  0
 13 18  2  0
 14 13  1  0
 15 16  1  0
 15 14  2  0
 16 17  2  0
 17 19  1  0
 17 18  1  0
 20 19  1  0
 21 16  1  0
 21 20  1  0
 22 23  1  0
 22 20  1  0
 24 23  1  0
  1 25  1  0
  5 26  1  0
  8 27  1  0
  8 28  1  0
  9 29  1  0
  9 30  1  0
 10 31  1  0
 11 32  1  0
 11 33  1  0
 12 34  1  0
 12 35  1  0
 13 36  1  0
 15 37  1  0
 18 38  1  0
 20 39  1  1
 23 40  1  0
 23 41  1  0
 24 42  1  0
 24 43  1  0
 24 44  1  0
M  ISO  8  25  14  26  14  27  13  28  13  29  13  30  13  31   5  32  13
M  ISO  8  33  13  34  13  35  13  36  14  37  14  38  14  39  13  40   8
M  ISO  4  41   8  42   8  43   8  44   8
M  END
>  <minimizedAffinity>  (1) 
-4.66837692

>  <minimizedRMSD>  (1) 
0.253526956

$$$$
