
     RDKit          3D

 42 45  0  0  1  0  0  0  0  0999 V2000
   45.1020   36.0080   43.5060 C   0  0  0  0  0  0  0  0  0  0  0  0
   45.9020   34.8920   43.2820 C   0  0  0  0  0  0  0  0  0  0  0  0
   46.0470   33.9620   44.2680 C   0  0  0  0  0  0  0  0  0  0  0  0
   45.3840   34.1970   45.4380 N   0  0  0  0  0  0  0  0  0  0  0  0
   44.6140   35.2720   45.6530 C   0  0  0  0  0  0  0  0  0  0  0  0
   44.4800   36.1580   44.6980 N   0  0  0  0  0  0  0  0  0  0  0  0
   46.5440   34.8030   42.0450 N   0  0  0  0  0  0  0  0  0  0  0  0
   47.8730   35.2840   41.8470 C   0  0  0  0  0  0  0  0  0  0  0  0
   48.4650   34.9530   40.5060 C   0  0  0  0  0  0  0  0  0  0  0  0
   48.1810   33.6750   40.0270 N   0  0  0  0  0  0  0  0  0  0  0  0
   46.8780   33.2370   40.1860 C   0  0  0  0  0  0  0  0  0  0  0  0
   45.9980   34.2570   40.8660 C   0  0  0  0  0  0  0  0  0  0  0  0
   46.4820   32.0490   45.5650 C   0  0  0  0  0  0  0  0  0  0  0  0
   46.7410   32.7570   44.3660 C   0  0  0  0  0  0  0  0  0  0  0  0
   47.6640   32.0930   43.5960 C   0  0  0  0  0  0  0  0  0  0  0  0
   48.2760   30.9190   43.8980 C   0  0  0  0  0  0  0  0  0  0  0  0
   47.9680   30.2890   45.0960 C   0  0  0  0  0  0  0  0  0  0  0  0
   47.0540   30.8680   45.9400 C   0  0  0  0  0  0  0  0  0  0  0  0
   48.7450   29.1420   45.1030 O   0  0  0  0  0  0  0  0  0  0  0  0
   49.4830   29.0400   43.9160 C   0  0  2  0  0  0  0  0  0  0  0  0
   49.2060   30.2150   43.1560 O   0  0  0  0  0  0  0  0  0  0  0  0
   48.9680   27.9310   43.1990 O   0  0  0  0  0  0  0  0  0  0  0  0
   48.6950   28.0060   41.8270 C   0  0  0  0  0  0  0  0  0  0  0  0
   47.5200   27.7560   41.4150 O   0  0  0  0  0  0  0  0  0  0  0  0
   49.6250   28.3420   40.8160 N   0  0  0  0  0  0  0  0  0  0  0  0
   44.9758   36.7647   42.7177 H   0  0  0  0  0  0  0  0  0  0  0  0
   44.1021   35.4084   46.6170 H   0  0  0  0  0  0  0  0  0  0  0  0
   47.8615   36.3785   41.9562 H   0  0  0  0  0  0  0  0  0  0  0  0
   48.5012   34.7819   42.5975 H   0  0  0  0  0  0  0  0  0  0  0  0
   48.0821   35.6819   39.7765 H   0  0  0  0  0  0  0  0  0  0  0  0
   49.5564   34.9921   40.6380 H   0  0  0  0  0  0  0  0  0  0  0  0
   48.7973   33.0116   40.5178 H   0  0  0  0  0  0  0  0  0  0  0  0
   46.4578   33.0158   39.1938 H   0  0  0  0  0  0  0  0  0  0  0  0
   46.9046   32.3427   40.8260 H   0  0  0  0  0  0  0  0  0  0  0  0
   45.8146   35.0793   40.1588 H   0  0  0  0  0  0  0  0  0  0  0  0
   45.0776   33.7314   41.1602 H   0  0  0  0  0  0  0  0  0  0  0  0
   45.7520   32.4922   46.2584 H   0  0  0  0  0  0  0  0  0  0  0  0
   47.9351   32.5594   42.6374 H   0  0  0  0  0  0  0  0  0  0  0  0
   46.7888   30.3919   46.8955 H   0  0  0  0  0  0  0  0  0  0  0  0
   50.5604   28.9266   44.1064 H   0  0  0  0  0  0  0  0  0  0  0  0
   49.3266   28.3705   39.8306 H   0  0  0  0  0  0  0  0  0  0  0  0
   50.6008   28.5582   41.0651 H   0  0  0  0  0  0  0  0  0  0  0  0
  1  6  2  0
  2  1  1  0
  2  3  2  0
  3 14  1  0
  3  4  1  0
  4  5  2  0
  6  5  1  0
  7  2  1  0
  8  7  1  0
  9  8  1  0
 10 11  1  0
 10  9  1  0
 11 12  1  0
 12  7  1  0
 13 18  2  0
 14 13  1  0
 15 16  1  0
 15 14  2  0
 16 17  2  0
 17 19  1  0
 17 18  1  0
 20 19  1  0
 21 16  1  0
 21 20  1  0
 22 20  1  0
 23 22  1  0
 24 23  2  0
 25 23  1  0
  1 26  1  0
  5 27  1  0
  8 28  1  0
  8 29  1  0
  9 30  1  0
  9 31  1  0
 10 32  1  0
 11 33  1  0
 11 34  1  0
 12 35  1  0
 12 36  1  0
 13 37  1  0
 15 38  1  0
 18 39  1  0
 20 40  1  1
 25 41  1  0
 25 42  1  0
M  ISO  8  26  14  27  14  28  13  29  13  30  13  31  13  32   5  33  13
M  ISO  7  34  13  35  13  36  13  37  14  38  14  39  14  40  13
M  END
>  <minimizedAffinity>  (1) 
-4.66797733

>  <minimizedRMSD>  (1) 
1.00957918

$$$$
