
     RDKit          3D

 20 21  0  0  0  0  0  0  0  0999 V2000
   45.7810   34.8650   43.4940 C   0  0  0  0  0  0  0  0  0  0  0  0
   47.0730   34.5710   43.0280 C   0  0  0  0  0  0  0  0  0  0  0  0
   47.8120   33.5160   43.5510 C   0  0  0  0  0  0  0  0  0  0  0  0
   47.2210   32.7630   44.5550 N   0  0  0  0  0  0  0  0  0  0  0  0
   45.9890   33.0730   44.9710 C   0  0  0  0  0  0  0  0  0  0  0  0
   45.2920   34.0960   44.4520 N   0  0  0  0  0  0  0  0  0  0  0  0
   47.7550   35.3870   41.9660 C   0  0  0  0  0  0  0  0  0  0  0  0
   49.1150   35.1810   41.6470 C   0  0  0  0  0  0  0  0  0  0  0  0
   48.0980   34.7150   40.6330 C   0  0  0  0  0  0  0  0  0  0  0  0
   44.8250   35.9260   43.1730 C   0  0  0  0  0  0  0  0  0  0  0  0
   44.1990   35.9020   41.9820 F   0  0  0  0  0  0  0  0  0  0  0  0
   43.7450   35.8880   44.1160 F   0  0  0  0  0  0  0  0  0  0  0  0
   45.3220   37.1950   43.3610 F   0  0  0  0  0  0  0  0  0  0  0  0
   48.8235   33.2878   43.1839 H   0  0  0  0  0  0  0  0  0  0  0  0
   45.5301   32.4682   45.7670 H   0  0  0  0  0  0  0  0  0  0  0  0
   47.1790   36.2727   42.2720 H   0  0  0  0  0  0  0  0  0  0  0  0
   49.7534   36.0462   41.4148 H   0  0  0  0  0  0  0  0  0  0  0  0
   49.9501   34.6879   42.1662 H   0  0  0  0  0  0  0  0  0  0  0  0
   47.9652   35.2516   39.6820 H   0  0  0  0  0  0  0  0  0  0  0  0
   47.8479   33.7758   40.1180 H   0  0  0  0  0  0  0  0  0  0  0  0
  1  6  2  0
  2  1  1  0
  2  3  2  0
  3  4  1  0
  4  5  2  0
  6  5  1  0
  7  2  1  0
  8  7  1  0
  9  8  1  0
  9  7  1  0
 10 13  1  0
 10  1  1  0
 10 12  1  0
 11 10  1  0
  3 14  1  0
  5 15  1  0
  7 16  1  0
  8 17  1  0
  8 18  1  0
  9 19  1  0
  9 20  1  0
M  ISO  7  14  14  15  14  16  13  17  13  18  13  19  13  20  13
M  END
>  <minimizedAffinity>  (1) 
-4.69954777

>  <minimizedRMSD>  (1) 
1.82930171

$$$$
