
     RDKit          3D

 27 29  0  0  0  0  0  0  0  0999 V2000
   44.8020   33.0750   41.1570 Cl  0  0  0  0  0  0  0  0  0  0  0  0
   46.3120   33.9130   40.9300 C   0  0  0  0  0  0  0  0  0  0  0  0
   46.8260   34.7050   41.9100 C   0  0  0  0  0  0  0  0  0  0  0  0
   48.0340   35.3930   41.7640 C   0  0  0  0  0  0  0  0  0  0  0  0
   48.6750   35.2150   40.5530 C   0  0  0  0  0  0  0  0  0  0  0  0
   48.1680   34.4240   39.5660 C   0  0  0  0  0  0  0  0  0  0  0  0
   46.9780   33.7580   39.7340 C   0  0  0  0  0  0  0  0  0  0  0  0
   45.6040   34.0500   45.3280 C   0  0  0  0  0  0  0  0  0  0  0  0
   44.7120   35.1160   45.5430 C   0  0  0  0  0  0  0  0  0  0  0  0
   44.5370   36.0490   44.5150 C   0  0  0  0  0  0  0  0  0  0  0  0
   45.2370   35.8700   43.3750 N   0  0  0  0  0  0  0  0  0  0  0  0
   46.0890   34.8510   43.1750 C   0  0  0  0  0  0  0  0  0  0  0  0
   46.2710   33.9330   44.1650 N   0  0  0  0  0  0  0  0  0  0  0  0
   46.4260   32.9070   38.6800 C   0  0  0  0  0  0  0  0  0  0  0  0
   46.7630   31.5870   38.4840 C   0  0  0  0  0  0  0  0  0  0  0  0
   45.9940   31.2090   37.3840 C   0  0  0  0  0  0  0  0  0  0  0  0
   45.2470   32.2430   36.9550 N   0  0  0  0  0  0  0  0  0  0  0  0
   45.5090   33.2900   37.7490 N   0  0  0  0  0  0  0  0  0  0  0  0
   48.4460   36.0323   42.5587 H   0  0  0  0  0  0  0  0  0  0  0  0
   49.6306   35.7313   40.3791 H   0  0  0  0  0  0  0  0  0  0  0  0
   48.7198   34.3170   38.6204 H   0  0  0  0  0  0  0  0  0  0  0  0
   45.7583   33.3027   46.1203 H   0  0  0  0  0  0  0  0  0  0  0  0
   44.1668   35.2136   46.4934 H   0  0  0  0  0  0  0  0  0  0  0  0
   43.8510   36.9009   44.6322 H   0  0  0  0  0  0  0  0  0  0  0  0
   47.4723   30.9743   39.0598 H   0  0  0  0  0  0  0  0  0  0  0  0
   45.9974   30.2068   36.9307 H   0  0  0  0  0  0  0  0  0  0  0  0
   44.5922   32.2316   36.1600 H   0  0  0  0  0  0  0  0  0  0  0  0
  2  1  1  0
  2  3  2  0
  3 12  1  0
  4  3  1  0
  5  4  2  0
  6  7  2  0
  6  5  1  0
  7  2  1  0
  8  9  2  0
 10  9  1  0
 11 10  2  0
 12 11  1  0
 12 13  2  0
 13  8  1  0
 14  7  1  0
 15 14  1  0
 16 15  2  0
 17 16  1  0
 17 18  1  0
 18 14  2  0
  4 19  1  0
  5 20  1  0
  6 21  1  0
  8 22  1  0
  9 23  1  0
 10 24  1  0
 15 25  1  0
 16 26  1  0
 17 27  1  0
M  ISO  8  19  14  20  14  21  14  22  14  23  14  24  14  25  14  26  14
M  ISO  1  27   9
M  END
>  <minimizedAffinity>  (1) 
-5.30166435

>  <minimizedRMSD>  (1) 
0.210008234

$$$$
