
     RDKit          3D

 18 19  0  0  0  0  0  0  0  0999 V2000
   46.0970   34.8920   43.3930 C   0  0  0  0  0  0  0  0  0  0  0  0
   47.2610   34.1340   43.0990 C   0  0  0  0  0  0  0  0  0  0  0  0
   47.6180   33.1000   43.9570 C   0  0  0  0  0  0  0  0  0  0  0  0
   46.8170   32.8640   45.0530 N   0  0  0  0  0  0  0  0  0  0  0  0
   45.7100   33.6060   45.3040 C   0  0  0  0  0  0  0  0  0  0  0  0
   45.3580   34.6200   44.4640 N   0  0  0  0  0  0  0  0  0  0  0  0
   48.1920   34.3870   41.9540 C   0  0  0  0  0  0  0  0  0  0  0  0
   48.7190   35.6960   41.7230 C   0  0  0  0  0  0  0  0  0  0  0  0
   49.6670   34.6730   42.2880 C   0  0  0  0  0  0  0  0  0  0  0  0
   45.7470   35.9100   42.5510 O   0  0  0  0  0  0  0  0  0  0  0  0
   48.5126   32.4889   43.7667 H   0  0  0  0  0  0  0  0  0  0  0  0
   45.0938   33.3887   46.1889 H   0  0  0  0  0  0  0  0  0  0  0  0
   47.6488   33.6688   41.3222 H   0  0  0  0  0  0  0  0  0  0  0  0
   48.8569   36.0491   40.6904 H   0  0  0  0  0  0  0  0  0  0  0  0
   48.4131   36.7037   42.0407 H   0  0  0  0  0  0  0  0  0  0  0  0
   50.0029   34.7370   43.3335 H   0  0  0  0  0  0  0  0  0  0  0  0
   50.6458   34.2518   42.0149 H   0  0  0  0  0  0  0  0  0  0  0  0
   46.3019   36.1071   41.7552 H   0  0  0  0  0  0  0  0  0  0  0  0
  1  6  2  0
  2  1  1  0
  2  3  2  0
  3  4  1  0
  4  5  2  0
  6  5  1  0
  7  9  1  0
  7  2  1  0
  8  7  1  0
  8  9  1  0
 10  1  1  0
  3 11  1  0
  5 12  1  0
  7 13  1  0
  8 14  1  0
  8 15  1  0
  9 16  1  0
  9 17  1  0
 10 18  1  0
M  ISO  8  11  14  12  14  13  13  14  13  15  13  16  13  17  13  18   3
M  END
>  <minimizedAffinity>  (1) 
-3.59261394

>  <minimizedRMSD>  (1) 
0.87259084

$$$$
