
     RDKit          3D

 32 34  0  0  0  0  0  0  0  0999 V2000
   46.2580   32.7730   43.6840 C   0  0  0  0  0  0  0  0  0  0  0  0
   47.3390   31.8820   43.4860 C   0  0  0  0  0  0  0  0  0  0  0  0
   47.7880   31.1240   44.5660 C   0  0  0  0  0  0  0  0  0  0  0  0
   47.1500   31.2830   45.7870 N   0  0  0  0  0  0  0  0  0  0  0  0
   46.1190   32.1520   45.9210 C   0  0  0  0  0  0  0  0  0  0  0  0
   45.6760   32.8950   44.8650 N   0  0  0  0  0  0  0  0  0  0  0  0
   45.6390   33.5690   42.6960 N   0  0  0  0  0  0  0  0  0  0  0  0
   46.4670   34.5860   42.0220 C   0  0  0  0  0  0  0  0  0  0  0  0
   46.1190   35.8840   42.7170 C   0  0  0  0  0  0  0  0  0  0  0  0
   44.7080   35.8440   43.2550 C   0  0  0  0  0  0  0  0  0  0  0  0
   43.7940   35.1030   42.2900 C   0  0  0  0  0  0  0  0  0  0  0  0
   44.2590   33.6530   42.1710 C   0  0  0  0  0  0  0  0  0  0  0  0
   48.0830   31.7600   42.1950 C   0  0  0  0  0  0  0  0  0  0  0  0
   49.3730   32.3700   42.0310 C   0  0  0  0  0  0  0  0  0  0  0  0
   49.3570   30.8790   42.1870 C   0  0  0  0  0  0  0  0  0  0  0  0
   48.6251   30.4193   44.4530 H   0  0  0  0  0  0  0  0  0  0  0  0
   45.6294   32.2609   46.9000 H   0  0  0  0  0  0  0  0  0  0  0  0
   47.5363   34.3568   42.1404 H   0  0  0  0  0  0  0  0  0  0  0  0
   46.2762   34.6285   40.9395 H   0  0  0  0  0  0  0  0  0  0  0  0
   46.8182   36.0452   43.5507 H   0  0  0  0  0  0  0  0  0  0  0  0
   46.1951   36.7048   41.9887 H   0  0  0  0  0  0  0  0  0  0  0  0
   44.7048   35.3277   44.2263 H   0  0  0  0  0  0  0  0  0  0  0  0
   44.3417   36.8744   43.3739 H   0  0  0  0  0  0  0  0  0  0  0  0
   42.7614   35.1284   42.6684 H   0  0  0  0  0  0  0  0  0  0  0  0
   43.8309   35.5852   41.3020 H   0  0  0  0  0  0  0  0  0  0  0  0
   43.5964   32.9996   42.7575 H   0  0  0  0  0  0  0  0  0  0  0  0
   44.2303   33.3284   41.1204 H   0  0  0  0  0  0  0  0  0  0  0  0
   47.1442   31.8080   41.6237 H   0  0  0  0  0  0  0  0  0  0  0  0
   49.7822   32.9928   42.8401 H   0  0  0  0  0  0  0  0  0  0  0  0
   49.7986   33.0462   41.2749 H   0  0  0  0  0  0  0  0  0  0  0  0
   49.5797   30.2238   41.3319 H   0  0  0  0  0  0  0  0  0  0  0  0
   49.8223   30.1401   42.8560 H   0  0  0  0  0  0  0  0  0  0  0  0
  1  6  2  0
  2  1  1  0
  2  3  2  0
  3  4  1  0
  4  5  2  0
  6  5  1  0
  7  1  1  0
  8  7  1  0
  8  9  1  0
  9 10  1  0
 11 10  1  0
 12 11  1  0
 12  7  1  0
 13  2  1  0
 14 15  1  0
 14 13  1  0
 15 13  1  0
  3 16  1  0
  5 17  1  0
  8 18  1  0
  8 19  1  0
  9 20  1  0
  9 21  1  0
 10 22  1  0
 10 23  1  0
 11 24  1  0
 11 25  1  0
 12 26  1  0
 12 27  1  0
 13 28  1  0
 14 29  1  0
 14 30  1  0
 15 31  1  0
 15 32  1  0
M  ISO  8  16  14  17  14  18  13  19  13  20  13  21  13  22  13  23  13
M  ISO  8  24  13  25  13  26  13  27  13  28  13  29  13  30  13  31  13
M  ISO  1  32  13
M  END
>  <minimizedAffinity>  (1) 
-3.26935387

>  <minimizedRMSD>  (1) 
3.09783626

$$$$
