
     RDKit          3D

 34 37  0  0  0  0  0  0  0  0999 V2000
   46.2650   34.4510   43.6160 C   0  0  0  0  0  0  0  0  0  0  0  0
   47.4050   33.8780   43.1680 C   0  0  0  0  0  0  0  0  0  0  0  0
   47.8150   32.7580   43.8540 C   0  0  0  0  0  0  0  0  0  0  0  0
   47.0390   32.3190   44.9270 N   0  0  0  0  0  0  0  0  0  0  0  0
   45.9180   32.9340   45.3190 C   0  0  0  0  0  0  0  0  0  0  0  0
   45.4940   34.0480   44.6520 N   0  0  0  0  0  0  0  0  0  0  0  0
   48.2160   34.3680   42.1170 C   0  0  0  0  0  0  0  0  0  0  0  0
   48.4970   35.6420   41.7210 C   0  0  0  0  0  0  0  0  0  0  0  0
   49.6470   34.9630   42.4710 C   0  0  0  0  0  0  0  0  0  0  0  0
   45.5170   35.5820   43.0580 C   0  0  0  0  0  0  0  0  0  0  0  0
   45.2800   36.7800   42.9230 O   0  0  0  0  0  0  0  0  0  0  0  0
   44.4070   35.2580   42.1240 C   0  0  0  0  0  0  0  0  0  0  0  0
   44.7180   34.4790   41.0090 C   0  0  0  0  0  0  0  0  0  0  0  0
   43.8770   34.1080   39.9680 C   0  0  0  0  0  0  0  0  0  0  0  0
   42.5840   34.5860   40.0760 C   0  0  0  0  0  0  0  0  0  0  0  0
   41.7130   34.2810   39.0990 N   0  0  0  0  0  0  0  0  0  0  0  0
   40.4220   34.7280   39.1240 C   0  0  0  0  0  0  0  0  0  0  0  0
   40.0280   35.5130   40.1960 C   0  0  0  0  0  0  0  0  0  0  0  0
   40.9130   35.8450   41.2290 C   0  0  0  0  0  0  0  0  0  0  0  0
   42.2130   35.3630   41.1500 C   0  0  0  0  0  0  0  0  0  0  0  0
   43.0810   35.7050   42.1640 C   0  0  0  0  0  0  0  0  0  0  0  0
   48.7310   32.2225   43.5639 H   0  0  0  0  0  0  0  0  0  0  0  0
   45.3419   32.5458   46.1719 H   0  0  0  0  0  0  0  0  0  0  0  0
   47.7616   33.5478   41.5418 H   0  0  0  0  0  0  0  0  0  0  0  0
   48.6129   35.8517   40.6474 H   0  0  0  0  0  0  0  0  0  0  0  0
   47.9741   36.5969   41.8786 H   0  0  0  0  0  0  0  0  0  0  0  0
   49.9072   35.2515   43.5001 H   0  0  0  0  0  0  0  0  0  0  0  0
   50.7056   34.7151   42.3039 H   0  0  0  0  0  0  0  0  0  0  0  0
   45.7541   34.1149   40.9471 H   0  0  0  0  0  0  0  0  0  0  0  0
   44.2122   33.4846   39.1260 H   0  0  0  0  0  0  0  0  0  0  0  0
   39.7176   34.4728   38.3186 H   0  0  0  0  0  0  0  0  0  0  0  0
   38.9935   35.8848   40.2364 H   0  0  0  0  0  0  0  0  0  0  0  0
   40.5889   36.4676   42.0759 H   0  0  0  0  0  0  0  0  0  0  0  0
   42.7332   36.3270   43.0019 H   0  0  0  0  0  0  0  0  0  0  0  0
  1  6  2  0
  2  1  1  0
  2  3  2  0
  3  4  1  0
  4  5  2  0
  6  5  1  0
  7  9  1  0
  7  2  1  0
  8  7  1  0
  8  9  1  0
 10  1  1  0
 11 10  2  0
 12 21  1  0
 12 10  1  0
 13 12  2  0
 14 15  2  0
 14 13  1  0
 15 20  1  0
 16 17  2  0
 16 15  1  0
 17 18  1  0
 18 19  2  0
 20 19  1  0
 20 21  2  0
  3 22  1  0
  5 23  1  0
  7 24  1  0
  8 25  1  0
  8 26  1  0
  9 27  1  0
  9 28  1  0
 13 29  1  0
 14 30  1  0
 17 31  1  0
 18 32  1  0
 19 33  1  0
 21 34  1  0
M  ISO  8  22  14  23  14  24  13  25  13  26  13  27  13  28  13  29  14
M  ISO  5  30  14  31  14  32  14  33  14  34  14
M  END
>  <minimizedAffinity>  (1) 
-6.33497

>  <minimizedRMSD>  (1) 
0.765524328

$$$$
