
     RDKit          3D

 28 30  0  0  0  0  0  0  0  0999 V2000
   46.0610   34.5040   43.9150 C   0  0  0  0  0  0  0  0  0  0  0  0
   47.1430   33.8580   43.4100 C   0  0  0  0  0  0  0  0  0  0  0  0
   47.6070   32.8050   44.1610 C   0  0  0  0  0  0  0  0  0  0  0  0
   46.9550   32.4820   45.3480 N   0  0  0  0  0  0  0  0  0  0  0  0
   45.8990   33.1560   45.7870 C   0  0  0  0  0  0  0  0  0  0  0  0
   45.4130   34.2080   45.0670 N   0  0  0  0  0  0  0  0  0  0  0  0
   47.8450   34.2120   42.2350 C   0  0  0  0  0  0  0  0  0  0  0  0
   48.2020   35.4230   41.7390 C   0  0  0  0  0  0  0  0  0  0  0  0
   49.3680   34.6430   42.3430 C   0  0  0  0  0  0  0  0  0  0  0  0
   45.3090   35.5770   43.2420 C   0  0  0  0  0  0  0  0  0  0  0  0
   45.1740   36.8190   43.1420 O   0  0  0  0  0  0  0  0  0  0  0  0
   44.3240   34.9120   42.3240 C   0  0  0  0  0  0  0  0  0  0  0  0
   43.6110   35.6840   41.4000 C   0  0  0  0  0  0  0  0  0  0  0  0
   42.6710   35.1830   40.4950 C   0  0  0  0  0  0  0  0  0  0  0  0
   42.4260   33.8420   40.5090 C   0  0  0  0  0  0  0  0  0  0  0  0
   43.1320   33.0990   41.4200 C   0  0  0  0  0  0  0  0  0  0  0  0
   44.0210   33.6270   42.2650 N   0  0  0  0  0  0  0  0  0  0  0  0
   48.4811   32.2255   43.8291 H   0  0  0  0  0  0  0  0  0  0  0  0
   45.4156   32.8662   46.7316 H   0  0  0  0  0  0  0  0  0  0  0  0
   47.2224   33.4288   41.7778 H   0  0  0  0  0  0  0  0  0  0  0  0
   48.1751   35.5803   40.6506 H   0  0  0  0  0  0  0  0  0  0  0  0
   47.8190   36.4377   41.9228 H   0  0  0  0  0  0  0  0  0  0  0  0
   49.8129   34.9342   43.3059 H   0  0  0  0  0  0  0  0  0  0  0  0
   50.3545   34.2662   42.0349 H   0  0  0  0  0  0  0  0  0  0  0  0
   43.8049   36.7667   41.3847 H   0  0  0  0  0  0  0  0  0  0  0  0
   42.1461   35.8490   39.7944 H   0  0  0  0  0  0  0  0  0  0  0  0
   41.6993   33.3797   39.8247 H   0  0  0  0  0  0  0  0  0  0  0  0
   42.9572   32.0136   41.4565 H   0  0  0  0  0  0  0  0  0  0  0  0
  1  6  2  0
  2  1  1  0
  2  3  2  0
  3  4  1  0
  4  5  2  0
  6  5  1  0
  7  9  1  0
  7  2  1  0
  8  7  1  0
  8  9  1  0
 10  1  1  0
 11 10  2  0
 12 10  1  0
 13 12  2  0
 14 15  2  0
 14 13  1  0
 15 16  1  0
 16 17  2  0
 17 12  1  0
  3 18  1  0
  5 19  1  0
  7 20  1  0
  8 21  1  0
  8 22  1  0
  9 23  1  0
  9 24  1  0
 13 25  1  0
 14 26  1  0
 15 27  1  0
 16 28  1  0
M  ISO  8  18  14  19  14  20  13  21  13  22  13  23  13  24  13  25  14
M  ISO  3  26  14  27  14  28  14
M  END
>  <minimizedAffinity>  (1) 
-4.97456312

>  <minimizedRMSD>  (1) 
1.12820268

$$$$
