
     RDKit          3D

 23 24  0  0  0  0  0  0  0  0999 V2000
   45.9260   35.0220   43.4760 C   0  0  0  0  0  0  0  0  0  0  0  0
   47.0510   34.6180   42.8450 C   0  0  0  0  0  0  0  0  0  0  0  0
   47.4840   33.3380   43.1820 C   0  0  0  0  0  0  0  0  0  0  0  0
   46.7520   32.6150   44.1060 N   0  0  0  0  0  0  0  0  0  0  0  0
   45.6470   33.0820   44.6930 C   0  0  0  0  0  0  0  0  0  0  0  0
   45.1920   34.3350   44.3840 N   0  0  0  0  0  0  0  0  0  0  0  0
   47.8340   35.3950   41.9590 C   0  0  0  0  0  0  0  0  0  0  0  0
   49.1410   35.2970   41.6060 C   0  0  0  0  0  0  0  0  0  0  0  0
   48.1770   34.8080   40.5230 C   0  0  0  0  0  0  0  0  0  0  0  0
   45.1890   36.2670   43.2150 C   0  0  0  0  0  0  0  0  0  0  0  0
   45.0780   37.4710   43.3880 O   0  0  0  0  0  0  0  0  0  0  0  0
   43.9780   34.6150   41.6390 C   0  0  0  0  0  0  0  0  0  0  0  0
   44.9270   33.8130   41.7860 O   0  0  0  0  0  0  0  0  0  0  0  0
   44.0910   35.8590   42.3510 N   0  0  0  0  0  0  0  0  0  0  0  0
   48.3883   32.9115   42.7233 H   0  0  0  0  0  0  0  0  0  0  0  0
   45.1048   32.4619   45.4220 H   0  0  0  0  0  0  0  0  0  0  0  0
   47.3004   36.2405   42.4178 H   0  0  0  0  0  0  0  0  0  0  0  0
   49.7143   36.2191   41.4299 H   0  0  0  0  0  0  0  0  0  0  0  0
   50.0037   34.8213   42.0953 H   0  0  0  0  0  0  0  0  0  0  0  0
   47.9996   35.3932   39.6087 H   0  0  0  0  0  0  0  0  0  0  0  0
   47.9879   33.8949   39.9395 H   0  0  0  0  0  0  0  0  0  0  0  0
   43.1104   34.3826   41.0040 H   0  0  0  0  0  0  0  0  0  0  0  0
   43.3169   36.5290   42.2383 H   0  0  0  0  0  0  0  0  0  0  0  0
  1  6  2  0
  2  3  2  0
  2  1  1  0
  3  4  1  0
  4  5  2  0
  6  5  1  0
  7  2  1  0
  8  7  1  0
  9  8  1  0
  9  7  1  0
 10 11  2  0
 10  1  1  0
 12 13  2  0
 12 14  1  0
 14 10  1  0
  3 15  1  0
  5 16  1  0
  7 17  1  0
  8 18  1  0
  8 19  1  0
  9 20  1  0
  9 21  1  0
 12 22  1  0
 14 23  1  0
M  ISO  8  15  14  16  14  17  13  18  13  19  13  20  13  21  13  22   6
M  END
>  <minimizedAffinity>  (1) 
-4.48572779

>  <minimizedRMSD>  (1) 
1.20453596

$$$$
