
     RDKit          3D

 20 21  0  0  0  0  0  0  0  0999 V2000
   46.2240   34.5260   43.6590 C   0  0  0  0  0  0  0  0  0  0  0  0
   47.3360   33.9500   43.1530 C   0  0  0  0  0  0  0  0  0  0  0  0
   47.7630   32.8200   43.8000 C   0  0  0  0  0  0  0  0  0  0  0  0
   47.0410   32.3640   44.8990 N   0  0  0  0  0  0  0  0  0  0  0  0
   45.9440   32.9850   45.3530 C   0  0  0  0  0  0  0  0  0  0  0  0
   45.4940   34.1210   44.7220 N   0  0  0  0  0  0  0  0  0  0  0  0
   48.1120   34.4590   42.0800 C   0  0  0  0  0  0  0  0  0  0  0  0
   48.5600   35.7120   41.8190 C   0  0  0  0  0  0  0  0  0  0  0  0
   49.6500   34.7770   42.3230 C   0  0  0  0  0  0  0  0  0  0  0  0
   45.5090   35.6740   43.0710 C   0  0  0  0  0  0  0  0  0  0  0  0
   45.2320   36.8630   43.0700 O   0  0  0  0  0  0  0  0  0  0  0  0
   44.7900   35.1760   41.9780 O   0  0  0  0  0  0  0  0  0  0  0  0
   48.6598   32.2832   43.4571 H   0  0  0  0  0  0  0  0  0  0  0  0
   45.4058   32.5880   46.2264 H   0  0  0  0  0  0  0  0  0  0  0  0
   47.4714   33.8063   41.4687 H   0  0  0  0  0  0  0  0  0  0  0  0
   48.5968   36.0553   40.7746 H   0  0  0  0  0  0  0  0  0  0  0  0
   48.2219   36.7008   42.1624 H   0  0  0  0  0  0  0  0  0  0  0  0
   50.0605   34.8726   43.3391 H   0  0  0  0  0  0  0  0  0  0  0  0
   50.6305   34.4022   41.9942 H   0  0  0  0  0  0  0  0  0  0  0  0
   44.2324   35.7860   41.4329 H   0  0  0  0  0  0  0  0  0  0  0  0
  1  6  2  0
  2  1  1  0
  2  3  2  0
  3  4  1  0
  4  5  2  0
  6  5  1  0
  7  9  1  0
  7  2  1  0
  8  7  1  0
  8  9  1  0
 10  1  1  0
 11 10  2  0
 12 10  1  0
  3 13  1  0
  5 14  1  0
  7 15  1  0
  8 16  1  0
  8 17  1  0
  9 18  1  0
  9 19  1  0
 12 20  1  0
M  ISO  8  13  14  14  14  15  13  16  13  17  13  18  13  19  13  20   3
M  END
>  <minimizedAffinity>  (1) 
-3.90358186

>  <minimizedRMSD>  (1) 
0.173030555

$$$$
