
     RDKit          3D

 23 24  0  0  0  0  0  0  0  0999 V2000
   44.7850   33.1900   41.1070 Cl  0  0  0  0  0  0  0  0  0  0  0  0
   46.3270   33.9970   40.9160 C   0  0  0  0  0  0  0  0  0  0  0  0
   46.8510   34.7440   41.9480 C   0  0  0  0  0  0  0  0  0  0  0  0
   48.0800   35.3970   41.8180 C   0  0  0  0  0  0  0  0  0  0  0  0
   48.7300   35.2540   40.6150 C   0  0  0  0  0  0  0  0  0  0  0  0
   48.1980   34.5050   39.5890 C   0  0  0  0  0  0  0  0  0  0  0  0
   47.0060   33.8770   39.7280 C   0  0  0  0  0  0  0  0  0  0  0  0
   45.5970   34.0450   45.3290 C   0  0  0  0  0  0  0  0  0  0  0  0
   44.7080   35.0980   45.5540 C   0  0  0  0  0  0  0  0  0  0  0  0
   44.5440   36.0390   44.5440 C   0  0  0  0  0  0  0  0  0  0  0  0
   45.2540   35.8870   43.3990 N   0  0  0  0  0  0  0  0  0  0  0  0
   46.1060   34.8590   43.2120 C   0  0  0  0  0  0  0  0  0  0  0  0
   46.2790   33.9370   44.1750 N   0  0  0  0  0  0  0  0  0  0  0  0
   46.4390   33.0680   38.6120 C   0  0  0  0  0  0  0  0  0  0  0  0
   48.5057   35.9952   42.6371 H   0  0  0  0  0  0  0  0  0  0  0  0
   49.7004   35.7508   40.4681 H   0  0  0  0  0  0  0  0  0  0  0  0
   48.7499   34.4154   38.6417 H   0  0  0  0  0  0  0  0  0  0  0  0
   45.7427   33.2872   46.1129 H   0  0  0  0  0  0  0  0  0  0  0  0
   44.1546   35.1804   46.5011 H   0  0  0  0  0  0  0  0  0  0  0  0
   43.8546   36.8867   44.6707 H   0  0  0  0  0  0  0  0  0  0  0  0
   45.8538   32.2331   39.0249 H   0  0  0  0  0  0  0  0  0  0  0  0
   45.7869   33.7024   37.9937 H   0  0  0  0  0  0  0  0  0  0  0  0
   47.2578   32.6715   37.9937 H   0  0  0  0  0  0  0  0  0  0  0  0
  2  1  1  0
  2  3  2  0
  3 12  1  0
  4  3  1  0
  5  4  2  0
  6  7  2  0
  6  5  1  0
  7  2  1  0
  8  9  2  0
 10  9  1  0
 11 10  2  0
 12 11  1  0
 12 13  2  0
 13  8  1  0
 14  7  1  0
  4 15  1  0
  5 16  1  0
  6 17  1  0
  8 18  1  0
  9 19  1  0
 10 20  1  0
 14 21  1  0
 14 22  1  0
 14 23  1  0
M  ISO  8  15  14  16  14  17  14  18  14  19  14  20  14  21   8  22   8
M  ISO  1  23   8
M  END
>  <minimizedAffinity>  (1) 
-5.15357447

>  <minimizedRMSD>  (1) 
0.0217275154

$$$$
