
     RDKit          3D

 39 42  0  0  0  0  0  0  0  0999 V2000
   44.5040   31.8550   42.8260 Cl  0  0  0  0  0  0  0  0  0  0  0  0
   44.5780   33.6170   42.7680 C   0  0  0  0  0  0  0  0  0  0  0  0
   45.4570   34.2170   43.6930 C   0  0  0  0  0  0  0  0  0  0  0  0
   45.4400   35.5970   43.5500 C   0  0  0  0  0  0  0  0  0  0  0  0
   44.7480   36.3680   42.7030 C   0  0  0  0  0  0  0  0  0  0  0  0
   43.9190   35.7060   41.8390 C   0  0  0  0  0  0  0  0  0  0  0  0
   43.8180   34.3580   41.8530 C   0  0  0  0  0  0  0  0  0  0  0  0
   44.8640   33.6410   39.4160 F   0  0  0  0  0  0  0  0  0  0  0  0
   43.6100   33.2330   39.7720 C   0  0  0  0  0  0  0  0  0  0  0  0
   42.9610   33.5260   40.9770 C   0  0  0  0  0  0  0  0  0  0  0  0
   41.7080   33.0560   41.2060 C   0  0  0  0  0  0  0  0  0  0  0  0
   41.0930   32.2920   40.2390 C   0  0  0  0  0  0  0  0  0  0  0  0
   41.7130   31.9900   39.0450 C   0  0  0  0  0  0  0  0  0  0  0  0
   42.9870   32.4620   38.7980 C   0  0  0  0  0  0  0  0  0  0  0  0
   46.3120   33.5190   44.6890 C   0  0  0  0  0  0  0  0  0  0  0  0
   45.7390   33.8790   45.6860 O   0  0  0  0  0  0  0  0  0  0  0  0
   47.3630   32.7860   43.9710 C   0  0  0  0  0  0  0  0  0  0  0  0
   48.2350   33.2970   43.0910 C   0  0  0  0  0  0  0  0  0  0  0  0
   49.0560   32.3660   42.4860 C   0  0  0  0  0  0  0  0  0  0  0  0
   48.9150   31.0110   42.8370 N   0  0  0  0  0  0  0  0  0  0  0  0
   48.0360   30.5860   43.7130 C   0  0  0  0  0  0  0  0  0  0  0  0
   47.1960   31.4830   44.3370 N   0  0  0  0  0  0  0  0  0  0  0  0
   48.4530   34.6750   42.8270 C   0  0  0  0  0  0  0  0  0  0  0  0
   49.5020   35.2500   42.1810 C   0  0  0  0  0  0  0  0  0  0  0  0
   48.2750   35.1440   41.3160 C   0  0  0  0  0  0  0  0  0  0  0  0
   46.0987   36.1430   44.2414 H   0  0  0  0  0  0  0  0  0  0  0  0
   44.8398   37.4642   42.7015 H   0  0  0  0  0  0  0  0  0  0  0  0
   43.3219   36.2830   41.1175 H   0  0  0  0  0  0  0  0  0  0  0  0
   41.1913   33.2822   42.1504 H   0  0  0  0  0  0  0  0  0  0  0  0
   40.0777   31.9117   40.4246 H   0  0  0  0  0  0  0  0  0  0  0  0
   41.1954   31.3762   38.2931 H   0  0  0  0  0  0  0  0  0  0  0  0
   43.4975   32.2327   37.8510 H   0  0  0  0  0  0  0  0  0  0  0  0
   49.8058   32.6778   41.7440 H   0  0  0  0  0  0  0  0  0  0  0  0
   47.9693   29.5138   43.9496 H   0  0  0  0  0  0  0  0  0  0  0  0
   48.0440   34.8794   43.8275 H   0  0  0  0  0  0  0  0  0  0  0  0
   49.8381   36.2471   42.5018 H   0  0  0  0  0  0  0  0  0  0  0  0
   50.5385   34.9159   42.0257 H   0  0  0  0  0  0  0  0  0  0  0  0
   47.6783   36.0320   41.0604 H   0  0  0  0  0  0  0  0  0  0  0  0
   47.9869   34.7071   40.3485 H   0  0  0  0  0  0  0  0  0  0  0  0
  2  1  1  0
  2  3  2  0
  3 15  1  0
  4  3  1  0
  5  4  2  0
  6  7  2  0
  6  5  1  0
  7  2  1  0
  8  9  1  0
  9 10  2  0
 10 11  1  0
 10  7  1  0
 12 11  2  0
 13 12  1  0
 14 13  2  0
 14  9  1  0
 15 16  2  0
 17 22  1  0
 17 15  1  0
 18 17  2  0
 19 20  2  0
 19 18  1  0
 20 21  1  0
 21 22  2  0
 23 18  1  0
 24 23  1  0
 25 24  1  0
 25 23  1  0
  4 26  1  0
  5 27  1  0
  6 28  1  0
 11 29  1  0
 12 30  1  0
 13 31  1  0
 14 32  1  0
 19 33  1  0
 21 34  1  0
 23 35  1  0
 24 36  1  0
 24 37  1  0
 25 38  1  0
 25 39  1  0
M  ISO  8  26  14  27  14  28  14  29  14  30  14  31  14  32  14  33  14
M  ISO  6  34  14  35  13  36  13  37  13  38  13  39  13
M  END
>  <minimizedAffinity>  (1) 
-5.62776232

>  <minimizedRMSD>  (1) 
0.824783802

$$$$
