
     RDKit          3D

 42 45  0  0  0  0  0  0  0  0999 V2000
   46.3130   33.5100   44.6860 C   0  0  0  0  0  0  0  0  0  0  0  0
   45.7360   33.8720   45.6810 O   0  0  0  0  0  0  0  0  0  0  0  0
   44.5080   31.8320   42.8330 Cl  0  0  0  0  0  0  0  0  0  0  0  0
   44.5770   33.5950   42.7590 C   0  0  0  0  0  0  0  0  0  0  0  0
   45.4530   34.2020   43.6820 C   0  0  0  0  0  0  0  0  0  0  0  0
   45.4340   35.5800   43.5350 C   0  0  0  0  0  0  0  0  0  0  0  0
   44.7340   36.3440   42.6820 C   0  0  0  0  0  0  0  0  0  0  0  0
   43.9120   35.6780   41.8250 C   0  0  0  0  0  0  0  0  0  0  0  0
   43.8190   34.3320   41.8450 C   0  0  0  0  0  0  0  0  0  0  0  0
   42.9860   33.5080   40.9930 N   0  0  0  0  0  0  0  0  0  0  0  0
   41.6260   33.0400   41.2820 C   0  0  0  0  0  0  0  0  0  0  0  0
   40.8610   32.9040   40.0020 C   0  0  0  0  0  0  0  0  0  0  0  0
   41.2410   33.7370   38.9860 O   0  0  0  0  0  0  0  0  0  0  0  0
   42.5850   33.7550   38.6850 C   0  0  0  0  0  0  0  0  0  0  0  0
   43.4600   33.0410   39.6920 C   0  0  0  0  0  0  0  0  0  0  0  0
   47.3660   32.7800   43.9710 C   0  0  0  0  0  0  0  0  0  0  0  0
   48.2410   33.2950   43.0940 C   0  0  0  0  0  0  0  0  0  0  0  0
   49.0720   32.3640   42.4920 C   0  0  0  0  0  0  0  0  0  0  0  0
   48.9350   31.0110   42.8400 N   0  0  0  0  0  0  0  0  0  0  0  0
   48.0430   30.5900   43.7220 C   0  0  0  0  0  0  0  0  0  0  0  0
   47.2010   31.4800   44.3390 N   0  0  0  0  0  0  0  0  0  0  0  0
   48.4560   34.6760   42.8310 C   0  0  0  0  0  0  0  0  0  0  0  0
   49.5050   35.2620   42.1950 C   0  0  0  0  0  0  0  0  0  0  0  0
   48.2880   35.1440   41.3240 C   0  0  0  0  0  0  0  0  0  0  0  0
   46.0929   36.1314   44.2219 H   0  0  0  0  0  0  0  0  0  0  0  0
   44.8192   37.4407   42.6757 H   0  0  0  0  0  0  0  0  0  0  0  0
   43.3114   36.2488   41.1015 H   0  0  0  0  0  0  0  0  0  0  0  0
   41.6739   32.0633   41.7858 H   0  0  0  0  0  0  0  0  0  0  0  0
   41.1201   33.7660   41.9355 H   0  0  0  0  0  0  0  0  0  0  0  0
   40.9761   31.8685   39.6493 H   0  0  0  0  0  0  0  0  0  0  0  0
   39.8251   33.1840   40.2439 H   0  0  0  0  0  0  0  0  0  0  0  0
   42.7248   33.2743   37.7055 H   0  0  0  0  0  0  0  0  0  0  0  0
   42.8945   34.8105   38.6923 H   0  0  0  0  0  0  0  0  0  0  0  0
   43.3417   31.9509   39.6046 H   0  0  0  0  0  0  0  0  0  0  0  0
   44.5286   33.2521   39.5383 H   0  0  0  0  0  0  0  0  0  0  0  0
   49.8252   32.6793   41.7549 H   0  0  0  0  0  0  0  0  0  0  0  0
   47.9762   29.5186   43.9622 H   0  0  0  0  0  0  0  0  0  0  0  0
   48.0392   34.8746   43.8294 H   0  0  0  0  0  0  0  0  0  0  0  0
   49.8286   36.2621   42.5192 H   0  0  0  0  0  0  0  0  0  0  0  0
   50.5461   34.9391   42.0476 H   0  0  0  0  0  0  0  0  0  0  0  0
   47.6844   36.0263   41.0646 H   0  0  0  0  0  0  0  0  0  0  0  0
   48.0122   34.7049   40.3539 H   0  0  0  0  0  0  0  0  0  0  0  0
  1  2  2  0
  4  3  1  0
  4  5  2  0
  5  1  1  0
  6  5  1  0
  7  6  2  0
  8  9  2  0
  8  7  1  0
  9  4  1  0
 10 11  1  0
 10  9  1  0
 12 11  1  0
 13 12  1  0
 14 13  1  0
 14 15  1  0
 15 10  1  0
 16 21  1  0
 16  1  1  0
 17 16  2  0
 18 19  2  0
 18 17  1  0
 19 20  1  0
 20 21  2  0
 22 17  1  0
 23 22  1  0
 24 23  1  0
 24 22  1  0
  6 25  1  0
  7 26  1  0
  8 27  1  0
 11 28  1  0
 11 29  1  0
 12 30  1  0
 12 31  1  0
 14 32  1  0
 14 33  1  0
 15 34  1  0
 15 35  1  0
 18 36  1  0
 20 37  1  0
 22 38  1  0
 23 39  1  0
 23 40  1  0
 24 41  1  0
 24 42  1  0
M  ISO  8  25  14  26  14  27  14  28  13  29  13  30  13  31  13  32  13
M  ISO  8  33  13  34  13  35  13  36  14  37  14  38  13  39  13  40  13
M  ISO  2  41  13  42  13
M  END
>  <minimizedAffinity>  (1) 
-5.5887413

>  <minimizedRMSD>  (1) 
0.632275462

$$$$
