
     RDKit          3D

 41 44  0  0  0  0  0  0  0  0999 V2000
   46.3040   33.5100   44.6650 C   0  0  0  0  0  0  0  0  0  0  0  0
   45.7330   33.8710   45.6640 O   0  0  0  0  0  0  0  0  0  0  0  0
   44.4840   31.8290   42.8520 Cl  0  0  0  0  0  0  0  0  0  0  0  0
   44.5580   33.5840   42.7530 C   0  0  0  0  0  0  0  0  0  0  0  0
   45.4400   34.1970   43.6660 C   0  0  0  0  0  0  0  0  0  0  0  0
   45.4270   35.5770   43.5180 C   0  0  0  0  0  0  0  0  0  0  0  0
   44.7260   36.3410   42.6650 C   0  0  0  0  0  0  0  0  0  0  0  0
   43.8960   35.6700   41.8130 C   0  0  0  0  0  0  0  0  0  0  0  0
   43.7970   34.3130   41.8390 C   0  0  0  0  0  0  0  0  0  0  0  0
   42.9170   33.6180   40.9420 N   0  0  0  0  0  0  0  0  0  0  0  0
   41.5090   33.3460   41.2680 C   0  0  0  0  0  0  0  0  0  0  0  0
   40.8990   33.4180   39.8830 C   0  0  0  0  0  0  0  0  0  0  0  0
   41.8950   32.4840   39.1780 C   0  0  0  0  0  0  0  0  0  0  0  0
   43.2310   33.0710   39.6180 C   0  0  0  0  0  0  0  0  0  0  0  0
   47.3600   32.7770   43.9540 C   0  0  0  0  0  0  0  0  0  0  0  0
   48.2420   33.2960   43.0890 C   0  0  0  0  0  0  0  0  0  0  0  0
   49.0630   32.3670   42.4820 C   0  0  0  0  0  0  0  0  0  0  0  0
   48.9130   31.0090   42.8170 N   0  0  0  0  0  0  0  0  0  0  0  0
   48.0210   30.5820   43.6840 C   0  0  0  0  0  0  0  0  0  0  0  0
   47.1860   31.4750   44.3020 N   0  0  0  0  0  0  0  0  0  0  0  0
   48.4720   34.6770   42.8370 C   0  0  0  0  0  0  0  0  0  0  0  0
   49.5280   35.2610   42.2110 C   0  0  0  0  0  0  0  0  0  0  0  0
   48.3120   35.1600   41.3320 C   0  0  0  0  0  0  0  0  0  0  0  0
   46.0902   36.1270   44.2018 H   0  0  0  0  0  0  0  0  0  0  0  0
   44.8146   37.4374   42.6532 H   0  0  0  0  0  0  0  0  0  0  0  0
   43.2939   36.2392   41.0895 H   0  0  0  0  0  0  0  0  0  0  0  0
   41.3795   32.3515   41.7198 H   0  0  0  0  0  0  0  0  0  0  0  0
   41.0641   34.0297   42.0060 H   0  0  0  0  0  0  0  0  0  0  0  0
   39.8702   33.0295   39.8576 H   0  0  0  0  0  0  0  0  0  0  0  0
   40.7838   34.4235   39.4521 H   0  0  0  0  0  0  0  0  0  0  0  0
   41.7791   32.5253   38.0849 H   0  0  0  0  0  0  0  0  0  0  0  0
   41.7681   31.4213   39.4320 H   0  0  0  0  0  0  0  0  0  0  0  0
   44.0052   32.2923   39.6831 H   0  0  0  0  0  0  0  0  0  0  0  0
   43.6328   33.8190   38.9187 H   0  0  0  0  0  0  0  0  0  0  0  0
   49.8207   32.6828   41.7497 H   0  0  0  0  0  0  0  0  0  0  0  0
   47.9455   29.5087   43.9127 H   0  0  0  0  0  0  0  0  0  0  0  0
   48.0543   34.8696   43.8362 H   0  0  0  0  0  0  0  0  0  0  0  0
   49.8575   36.2556   42.5459 H   0  0  0  0  0  0  0  0  0  0  0  0
   50.5674   34.9317   42.0651 H   0  0  0  0  0  0  0  0  0  0  0  0
   47.7158   36.0489   41.0783 H   0  0  0  0  0  0  0  0  0  0  0  0
   48.0367   34.7319   40.3569 H   0  0  0  0  0  0  0  0  0  0  0  0
  1  2  2  0
  4  3  1  0
  4  5  2  0
  5  1  1  0
  6  5  1  0
  7  6  2  0
  8  9  2  0
  8  7  1  0
  9  4  1  0
 10 11  1  0
 10  9  1  0
 12 11  1  0
 13 14  1  0
 13 12  1  0
 14 10  1  0
 15 20  1  0
 15  1  1  0
 16 15  2  0
 17 18  2  0
 17 16  1  0
 18 19  1  0
 19 20  2  0
 21 16  1  0
 22 21  1  0
 23 22  1  0
 23 21  1  0
  6 24  1  0
  7 25  1  0
  8 26  1  0
 11 27  1  0
 11 28  1  0
 12 29  1  0
 12 30  1  0
 13 31  1  0
 13 32  1  0
 14 33  1  0
 14 34  1  0
 17 35  1  0
 19 36  1  0
 21 37  1  0
 22 38  1  0
 22 39  1  0
 23 40  1  0
 23 41  1  0
M  ISO  8  24  14  25  14  26  14  27  13  28  13  29  13  30  13  31  13
M  ISO  8  32  13  33  13  34  13  35  14  36  14  37  13  38  13  39  13
M  ISO  2  40  13  41  13
M  END
>  <minimizedAffinity>  (1) 
-5.40031481

>  <minimizedRMSD>  (1) 
0.352055669

$$$$
