
     RDKit          3D

 32 34  0  0  0  0  0  0  0  0999 V2000
   47.3810   32.8090   44.0180 C   0  0  0  0  0  0  0  0  0  0  0  0
   48.2380   33.3100   43.1150 C   0  0  0  0  0  0  0  0  0  0  0  0
   49.0770   32.3820   42.5400 C   0  0  0  0  0  0  0  0  0  0  0  0
   48.9700   31.0360   42.9380 N   0  0  0  0  0  0  0  0  0  0  0  0
   48.1050   30.6210   43.8340 C   0  0  0  0  0  0  0  0  0  0  0  0
   47.2500   31.5190   44.4280 N   0  0  0  0  0  0  0  0  0  0  0  0
   48.4220   34.6840   42.7990 C   0  0  0  0  0  0  0  0  0  0  0  0
   49.4530   35.2680   42.1330 C   0  0  0  0  0  0  0  0  0  0  0  0
   48.2250   35.0970   41.2770 C   0  0  0  0  0  0  0  0  0  0  0  0
   46.3140   33.5440   44.7110 C   0  0  0  0  0  0  0  0  0  0  0  0
   45.7410   33.9280   45.6970 O   0  0  0  0  0  0  0  0  0  0  0  0
   44.5440   31.7610   42.9230 Cl  0  0  0  0  0  0  0  0  0  0  0  0
   44.5700   33.5130   42.7800 C   0  0  0  0  0  0  0  0  0  0  0  0
   45.4290   34.1770   43.6820 C   0  0  0  0  0  0  0  0  0  0  0  0
   45.3790   35.5500   43.4970 C   0  0  0  0  0  0  0  0  0  0  0  0
   44.6650   36.2710   42.6220 C   0  0  0  0  0  0  0  0  0  0  0  0
   43.8580   35.5540   41.7820 C   0  0  0  0  0  0  0  0  0  0  0  0
   43.8010   34.2080   41.8490 C   0  0  0  0  0  0  0  0  0  0  0  0
   42.9540   33.3020   40.9840 C   0  0  0  0  0  0  0  0  0  0  0  0
   43.7680   32.5280   40.2140 F   0  0  0  0  0  0  0  0  0  0  0  0
   42.2240   34.1090   40.1020 F   0  0  0  0  0  0  0  0  0  0  0  0
   42.0410   32.6010   41.7250 F   0  0  0  0  0  0  0  0  0  0  0  0
   49.8163   32.6864   41.7845 H   0  0  0  0  0  0  0  0  0  0  0  0
   48.0643   29.5567   44.1091 H   0  0  0  0  0  0  0  0  0  0  0  0
   48.0116   34.9089   43.7945 H   0  0  0  0  0  0  0  0  0  0  0  0
   49.7605   36.2843   42.4202 H   0  0  0  0  0  0  0  0  0  0  0  0
   50.4987   34.9603   41.9852 H   0  0  0  0  0  0  0  0  0  0  0  0
   47.6011   35.9581   40.9954 H   0  0  0  0  0  0  0  0  0  0  0  0
   47.9464   34.6202   40.3257 H   0  0  0  0  0  0  0  0  0  0  0  0
   46.0224   36.1358   44.1699 H   0  0  0  0  0  0  0  0  0  0  0  0
   44.7240   37.3687   42.5818 H   0  0  0  0  0  0  0  0  0  0  0  0
   43.2447   36.0844   41.0387 H   0  0  0  0  0  0  0  0  0  0  0  0
  1  6  1  0
  1 10  1  0
  2  1  2  0
  3  4  2  0
  3  2  1  0
  4  5  1  0
  5  6  2  0
  7  2  1  0
  8  7  1  0
  9  8  1  0
  9  7  1  0
 10 11  2  0
 13 12  1  0
 13 14  2  0
 14 10  1  0
 15 14  1  0
 16 15  2  0
 17 18  2  0
 17 16  1  0
 18 13  1  0
 19 22  1  0
 19 18  1  0
 20 19  1  0
 21 19  1  0
  3 23  1  0
  5 24  1  0
  7 25  1  0
  8 26  1  0
  8 27  1  0
  9 28  1  0
  9 29  1  0
 15 30  1  0
 16 31  1  0
 17 32  1  0
M  ISO  8  23  14  24  14  25  13  26  13  27  13  28  13  29  13  30  14
M  ISO  2  31  14  32  14
M  END
>  <minimizedAffinity>  (1) 
-5.23156929

>  <minimizedRMSD>  (1) 
0.2847417

$$$$
