
     RDKit          3D

 31 33  0  0  0  0  0  0  0  0999 V2000
   47.5270   32.8360   43.9060 C   0  0  0  0  0  0  0  0  0  0  0  0
   48.3660   33.3860   43.0160 C   0  0  0  0  0  0  0  0  0  0  0  0
   49.2230   32.4930   42.4030 C   0  0  0  0  0  0  0  0  0  0  0  0
   49.1470   31.1350   42.7550 N   0  0  0  0  0  0  0  0  0  0  0  0
   48.2970   30.6710   43.6420 C   0  0  0  0  0  0  0  0  0  0  0  0
   47.4250   31.5280   44.2730 N   0  0  0  0  0  0  0  0  0  0  0  0
   48.5200   34.7730   42.7520 C   0  0  0  0  0  0  0  0  0  0  0  0
   49.5540   35.4070   42.1370 C   0  0  0  0  0  0  0  0  0  0  0  0
   48.3620   35.2300   41.2390 C   0  0  0  0  0  0  0  0  0  0  0  0
   46.4480   33.5200   44.6290 C   0  0  0  0  0  0  0  0  0  0  0  0
   45.8770   33.8770   45.6280 O   0  0  0  0  0  0  0  0  0  0  0  0
   44.6160   31.6810   42.9630 Cl  0  0  0  0  0  0  0  0  0  0  0  0
   44.6220   33.4370   42.7860 C   0  0  0  0  0  0  0  0  0  0  0  0
   45.5170   34.1240   43.6320 C   0  0  0  0  0  0  0  0  0  0  0  0
   45.4390   35.4890   43.4080 C   0  0  0  0  0  0  0  0  0  0  0  0
   44.6790   36.1830   42.5490 C   0  0  0  0  0  0  0  0  0  0  0  0
   43.8430   35.4400   41.7660 C   0  0  0  0  0  0  0  0  0  0  0  0
   43.7990   34.0930   41.8670 C   0  0  0  0  0  0  0  0  0  0  0  0
   42.9600   33.1940   41.1020 N   0  0  0  0  0  0  0  0  0  0  0  0
   49.9508   32.8383   41.6539 H   0  0  0  0  0  0  0  0  0  0  0  0
   48.2822   29.5973   43.8805 H   0  0  0  0  0  0  0  0  0  0  0  0
   48.0721   34.9535   43.7403 H   0  0  0  0  0  0  0  0  0  0  0  0
   49.8229   36.4218   42.4654 H   0  0  0  0  0  0  0  0  0  0  0  0
   50.6122   35.1333   42.0131 H   0  0  0  0  0  0  0  0  0  0  0  0
   47.7232   36.0823   40.9642 H   0  0  0  0  0  0  0  0  0  0  0  0
   48.1282   34.7766   40.2644 H   0  0  0  0  0  0  0  0  0  0  0  0
   46.1061   36.0998   44.0339 H   0  0  0  0  0  0  0  0  0  0  0  0
   44.7259   37.2798   42.4795 H   0  0  0  0  0  0  0  0  0  0  0  0
   43.1925   35.9477   41.0386 H   0  0  0  0  0  0  0  0  0  0  0  0
   43.0111   32.1782   41.2648 H   0  0  0  0  0  0  0  0  0  0  0  0
   42.3122   33.5704   40.3952 H   0  0  0  0  0  0  0  0  0  0  0  0
  1  6  1  0
  1 10  1  0
  2  1  2  0
  3  4  2  0
  3  2  1  0
  4  5  1  0
  5  6  2  0
  7  2  1  0
  8  7  1  0
  9  8  1  0
  9  7  1  0
 10 11  2  0
 13 12  1  0
 13 14  2  0
 14 10  1  0
 15 14  1  0
 16 15  2  0
 17 18  2  0
 17 16  1  0
 18 13  1  0
 19 18  1  0
  3 20  1  0
  5 21  1  0
  7 22  1  0
  8 23  1  0
  8 24  1  0
  9 25  1  0
  9 26  1  0
 15 27  1  0
 16 28  1  0
 17 29  1  0
 19 30  1  0
 19 31  1  0
M  ISO  8  20  14  21  14  22  13  23  13  24  13  25  13  26  13  27  14
M  ISO  2  28  14  29  14
M  END
>  <minimizedAffinity>  (1) 
-4.99536037

>  <minimizedRMSD>  (1) 
0.0438399427

$$$$
