
     RDKit          3D

 50 53  0  0  1  0  0  0  0  0999 V2000
   47.3520   32.8100   44.0250 C   0  0  0  0  0  0  0  0  0  0  0  0
   48.1290   33.2710   43.0490 C   0  0  0  0  0  0  0  0  0  0  0  0
   48.9670   32.3500   42.5000 C   0  0  0  0  0  0  0  0  0  0  0  0
   48.9470   31.0340   42.9910 N   0  0  0  0  0  0  0  0  0  0  0  0
   48.1530   30.6410   43.9620 C   0  0  0  0  0  0  0  0  0  0  0  0
   47.2920   31.5420   44.5410 N   0  0  0  0  0  0  0  0  0  0  0  0
   48.2520   34.6140   42.6070 C   0  0  1  0  0  0  0  0  0  0  0  0
   49.1470   35.1650   41.7470 C   0  0  0  0  0  0  0  0  0  0  0  0
   47.7650   34.9900   41.1800 C   0  0  1  0  0  0  0  0  0  0  0  0
   47.6640   34.1180   40.1230 N   0  0  0  0  0  0  0  0  0  0  0  0
   48.5880   33.9340   39.1040 C   0  0  0  0  0  0  0  0  0  0  0  0
   47.9820   34.1390   37.6950 C   0  0  0  0  0  0  0  0  0  0  0  0
   46.9740   33.0170   37.5480 C   0  0  0  0  0  0  0  0  0  0  0  0
   45.9220   33.2830   38.6010 C   0  0  0  0  0  0  0  0  0  0  0  0
   46.5080   33.3150   39.9900 C   0  0  0  0  0  0  0  0  0  0  0  0
   46.3090   33.5630   44.7540 C   0  0  0  0  0  0  0  0  0  0  0  0
   45.7570   33.9600   45.7390 O   0  0  0  0  0  0  0  0  0  0  0  0
   44.4880   31.7950   42.9940 Cl  0  0  0  0  0  0  0  0  0  0  0  0
   44.5330   33.5390   42.8580 C   0  0  0  0  0  0  0  0  0  0  0  0
   45.4120   34.2100   43.7450 C   0  0  0  0  0  0  0  0  0  0  0  0
   45.3490   35.5700   43.5460 C   0  0  0  0  0  0  0  0  0  0  0  0
   44.6330   36.2910   42.6960 C   0  0  0  0  0  0  0  0  0  0  0  0
   43.8020   35.5790   41.8610 C   0  0  0  0  0  0  0  0  0  0  0  0
   43.7400   34.2160   41.9310 C   0  0  0  0  0  0  0  0  0  0  0  0
   42.8750   33.6260   41.0560 O   0  0  0  0  0  0  0  0  0  0  0  0
   40.6090   33.0450   39.8730 O   0  0  0  0  0  0  0  0  0  0  0  0
   41.2250   33.2830   41.2320 P   0  0  0  0  0  0  0  0  0  0  0  0
   41.0410   31.9250   42.2360 O   0  0  0  0  0  0  0  0  0  0  0  0
   40.4070   34.5370   42.0200 O   0  0  0  0  0  0  0  0  0  0  0  0
   49.6494   32.6316   41.6845 H   0  0  0  0  0  0  0  0  0  0  0  0
   48.1776   29.5974   44.3089 H   0  0  0  0  0  0  0  0  0  0  0  0
   48.0331   34.8664   43.6550 H   0  0  0  0  0  0  0  0  0  0  0  0
   49.5193   36.1815   41.9424 H   0  0  0  0  0  0  0  0  0  0  0  0
   50.1398   34.8430   41.3995 H   0  0  0  0  0  0  0  0  0  0  0  0
   46.9051   35.5542   40.7897 H   0  0  0  0  0  0  0  0  0  0  0  0
   49.4088   34.6535   39.2408 H   0  0  0  0  0  0  0  0  0  0  0  0
   48.9403   32.8936   39.1628 H   0  0  0  0  0  0  0  0  0  0  0  0
   47.4865   35.1185   37.6237 H   0  0  0  0  0  0  0  0  0  0  0  0
   48.7465   34.1204   36.9043 H   0  0  0  0  0  0  0  0  0  0  0  0
   46.5257   33.0314   36.5436 H   0  0  0  0  0  0  0  0  0  0  0  0
   47.4400   32.0287   37.6753 H   0  0  0  0  0  0  0  0  0  0  0  0
   45.4488   34.2539   38.3928 H   0  0  0  0  0  0  0  0  0  0  0  0
   45.1872   32.4654   38.5611 H   0  0  0  0  0  0  0  0  0  0  0  0
   45.7409   33.7015   40.6771 H   0  0  0  0  0  0  0  0  0  0  0  0
   46.8158   32.2848   40.2222 H   0  0  0  0  0  0  0  0  0  0  0  0
   46.0046   36.1586   44.2046 H   0  0  0  0  0  0  0  0  0  0  0  0
   44.6984   37.3885   42.6598 H   0  0  0  0  0  0  0  0  0  0  0  0
   43.1801   36.1141   41.1283 H   0  0  0  0  0  0  0  0  0  0  0  0
   41.0793   32.2078   43.1840 H   0  0  0  0  0  0  0  0  0  0  0  0
   40.4850   34.4175   42.9997 H   0  0  0  0  0  0  0  0  0  0  0  0
  1  6  1  0
  1 16  1  0
  2  1  2  0
  3  4  2  0
  3  2  1  0
  4  5  1  0
  5  6  2  0
  7  2  1  0
  8  7  1  0
  9  8  1  0
  9  7  1  0
 10  9  1  0
 11 10  1  0
 12 11  1  0
 13 12  1  0
 13 14  1  0
 14 15  1  0
 15 10  1  0
 16 17  2  0
 19 18  1  0
 19 20  2  0
 20 16  1  0
 21 20  1  0
 22 21  2  0
 23 24  2  0
 23 22  1  0
 24 19  1  0
 25 27  1  0
 25 24  1  0
 26 27  2  0
 27 29  1  0
 27 28  1  0
  3 30  1  0
  5 31  1  0
  7 32  1  1
  8 33  1  0
  8 34  1  0
  9 35  1  1
 11 36  1  0
 11 37  1  0
 12 38  1  0
 12 39  1  0
 13 40  1  0
 13 41  1  0
 14 42  1  0
 14 43  1  0
 15 44  1  0
 15 45  1  0
 21 46  1  0
 22 47  1  0
 23 48  1  0
 28 49  1  0
 29 50  1  0
M  ISO  8  30  14  31  14  32  13  33  13  34  13  35  13  36  13  37  13
M  ISO  8  38  13  39  13  40  13  41  13  42  13  43  13  44  13  45  13
M  ISO  5  46  14  47  14  48  14  49   3  50   3
M  END
>  <minimizedAffinity>  (1) 
-6.13476753

>  <minimizedRMSD>  (1) 
0.930277109

$$$$
