
     RDKit          3D

 42 45  0  0  1  0  0  0  0  0999 V2000
   46.3360   33.5260   44.7510 C   0  0  0  0  0  0  0  0  0  0  0  0
   45.7620   33.9590   45.7100 O   0  0  0  0  0  0  0  0  0  0  0  0
   44.4770   31.7420   43.0500 Cl  0  0  0  0  0  0  0  0  0  0  0  0
   44.5850   33.4770   42.8310 C   0  0  0  0  0  0  0  0  0  0  0  0
   45.4750   34.1610   43.7000 C   0  0  0  0  0  0  0  0  0  0  0  0
   45.4640   35.5120   43.4340 C   0  0  0  0  0  0  0  0  0  0  0  0
   44.7880   36.2150   42.5380 C   0  0  0  0  0  0  0  0  0  0  0  0
   43.9430   35.4920   41.7260 C   0  0  0  0  0  0  0  0  0  0  0  0
   43.8330   34.1380   41.8600 C   0  0  0  0  0  0  0  0  0  0  0  0
   42.9590   33.5360   40.9990 O   0  0  0  0  0  0  0  0  0  0  0  0
   40.6930   32.9200   39.8330 O   0  0  0  0  0  0  0  0  0  0  0  0
   41.3090   33.2060   41.1800 P   0  0  0  0  0  0  0  0  0  0  0  0
   41.1180   31.8880   42.2310 O   0  0  0  0  0  0  0  0  0  0  0  0
   40.4980   34.5000   41.9230 O   0  0  0  0  0  0  0  0  0  0  0  0
   47.3910   32.7370   44.0780 C   0  0  0  0  0  0  0  0  0  0  0  0
   48.2890   33.2060   43.2170 C   0  0  0  0  0  0  0  0  0  0  0  0
   49.1120   32.2510   42.6600 C   0  0  0  0  0  0  0  0  0  0  0  0
   48.9290   30.9080   43.0520 N   0  0  0  0  0  0  0  0  0  0  0  0
   48.0250   30.5200   43.9090 C   0  0  0  0  0  0  0  0  0  0  0  0
   47.1820   31.4540   44.4810 N   0  0  0  0  0  0  0  0  0  0  0  0
   48.5650   34.5770   42.9060 C   0  0  1  0  0  0  0  0  0  0  0  0
   49.5730   35.0750   42.1420 C   0  0  0  0  0  0  0  0  0  0  0  0
   48.2540   35.0430   41.4360 C   0  0  1  0  0  0  0  0  0  0  0  0
   48.1330   33.9970   40.3810 C   0  0  0  0  0  0  0  0  0  0  0  0
   46.9480   33.7250   39.5790 C   0  0  0  0  0  0  0  0  0  0  0  0
   48.0800   34.4510   38.9220 C   0  0  0  0  0  0  0  0  0  0  0  0
   46.1299   36.1088   44.0746 H   0  0  0  0  0  0  0  0  0  0  0  0
   44.8947   37.3061   42.4483 H   0  0  0  0  0  0  0  0  0  0  0  0
   43.3492   36.0120   40.9598 H   0  0  0  0  0  0  0  0  0  0  0  0
   41.1638   32.2039   43.1681 H   0  0  0  0  0  0  0  0  0  0  0  0
   40.5573   34.4054   42.9067 H   0  0  0  0  0  0  0  0  0  0  0  0
   49.8884   32.5276   41.9315 H   0  0  0  0  0  0  0  0  0  0  0  0
   47.9343   29.4564   44.1746 H   0  0  0  0  0  0  0  0  0  0  0  0
   48.2807   34.8153   43.9416 H   0  0  0  0  0  0  0  0  0  0  0  0
   50.0090   36.0492   42.4081 H   0  0  0  0  0  0  0  0  0  0  0  0
   50.5616   34.6737   41.8743 H   0  0  0  0  0  0  0  0  0  0  0  0
   47.5509   35.7311   40.9439 H   0  0  0  0  0  0  0  0  0  0  0  0
   48.7479   33.3461   41.0200 H   0  0  0  0  0  0  0  0  0  0  0  0
   46.7193   32.6912   39.2806 H   0  0  0  0  0  0  0  0  0  0  0  0
   45.8758   33.9360   39.7046 H   0  0  0  0  0  0  0  0  0  0  0  0
   48.6954   33.9498   38.1603 H   0  0  0  0  0  0  0  0  0  0  0  0
   48.2047   35.4020   38.3835 H   0  0  0  0  0  0  0  0  0  0  0  0
  1  2  2  0
  4  3  1  0
  4  5  2  0
  5  1  1  0
  6  5  1  0
  7  6  2  0
  8  9  2  0
  8  7  1  0
  9  4  1  0
 10 12  1  0
 10  9  1  0
 11 12  2  0
 12 14  1  0
 12 13  1  0
 15 20  1  0
 15  1  1  0
 16 15  2  0
 17 18  2  0
 17 16  1  0
 18 19  1  0
 19 20  2  0
 21 16  1  0
 22 21  1  0
 23 22  1  0
 23 21  1  0
 24 23  1  0
 25 24  1  0
 26 25  1  0
 26 24  1  0
  6 27  1  0
  7 28  1  0
  8 29  1  0
 13 30  1  0
 14 31  1  0
 17 32  1  0
 19 33  1  0
 21 34  1  1
 22 35  1  0
 22 36  1  0
 23 37  1  1
 24 38  1  0
 25 39  1  0
 25 40  1  0
 26 41  1  0
 26 42  1  0
M  ISO  8  27  14  28  14  29  14  30   3  31   3  32  14  33  14  34  13
M  ISO  8  35  13  36  13  37  13  38  13  39  13  40  13  41  13  42  13
M  END
>  <minimizedAffinity>  (1) 
-6.01159859

>  <minimizedRMSD>  (1) 
0.170707673

$$$$
