
     RDKit          3D

 21 22  0  0  0  0  0  0  0  0999 V2000
   44.7780   33.1840   41.1120 Cl  0  0  0  0  0  0  0  0  0  0  0  0
   46.3120   33.9850   40.9170 C   0  0  0  0  0  0  0  0  0  0  0  0
   46.8470   34.7290   41.9370 C   0  0  0  0  0  0  0  0  0  0  0  0
   48.0680   35.3770   41.8020 C   0  0  0  0  0  0  0  0  0  0  0  0
   48.7150   35.2340   40.5970 C   0  0  0  0  0  0  0  0  0  0  0  0
   48.1850   34.4950   39.5840 C   0  0  0  0  0  0  0  0  0  0  0  0
   46.9800   33.8610   39.7250 C   0  0  0  0  0  0  0  0  0  0  0  0
   45.5980   34.0370   45.3360 C   0  0  0  0  0  0  0  0  0  0  0  0
   44.7030   35.1050   45.5640 C   0  0  0  0  0  0  0  0  0  0  0  0
   44.5470   36.0440   44.5450 C   0  0  0  0  0  0  0  0  0  0  0  0
   45.2530   35.8800   43.4040 N   0  0  0  0  0  0  0  0  0  0  0  0
   46.1090   34.8460   43.2030 C   0  0  0  0  0  0  0  0  0  0  0  0
   46.2650   33.9390   44.1790 N   0  0  0  0  0  0  0  0  0  0  0  0
   46.3980   33.0880   38.7010 O   0  0  0  0  0  0  0  0  0  0  0  0
   48.4967   35.9756   42.6193 H   0  0  0  0  0  0  0  0  0  0  0  0
   49.6857   35.7295   40.4478 H   0  0  0  0  0  0  0  0  0  0  0  0
   48.7347   34.4057   38.6354 H   0  0  0  0  0  0  0  0  0  0  0  0
   45.7490   33.2774   46.1171 H   0  0  0  0  0  0  0  0  0  0  0  0
   44.1493   35.1930   46.5104 H   0  0  0  0  0  0  0  0  0  0  0  0
   43.8651   36.8985   44.6669 H   0  0  0  0  0  0  0  0  0  0  0  0
   45.5238   32.6477   38.8492 H   0  0  0  0  0  0  0  0  0  0  0  0
  2  1  1  0
  2  3  2  0
  3 12  1  0
  4  3  1  0
  5  4  2  0
  6  7  2  0
  6  5  1  0
  7  2  1  0
  8  9  2  0
 10  9  1  0
 11 10  2  0
 12 11  1  0
 12 13  2  0
 13  8  1  0
 14  7  1  0
  4 15  1  0
  5 16  1  0
  6 17  1  0
  8 18  1  0
  9 19  1  0
 10 20  1  0
 14 21  1  0
M  ISO  7  15  14  16  14  17  14  18  14  19  14  20  14  21   3
M  END
>  <minimizedAffinity>  (1) 
-5.05859041

>  <minimizedRMSD>  (1) 
0.00772270793

$$$$
