
     RDKit          3D

 37 39  0  0  1  0  0  0  0  0999 V2000
   46.3730   33.4390   44.6580 C   0  0  0  0  0  0  0  0  0  0  0  0
   45.8460   33.8160   45.6670 O   0  0  0  0  0  0  0  0  0  0  0  0
   44.4750   31.7630   42.8910 Cl  0  0  0  0  0  0  0  0  0  0  0  0
   44.5610   33.5140   42.8010 C   0  0  0  0  0  0  0  0  0  0  0  0
   45.4690   34.1400   43.6880 C   0  0  0  0  0  0  0  0  0  0  0  0
   45.4350   35.5070   43.5280 C   0  0  0  0  0  0  0  0  0  0  0  0
   44.7220   36.2680   42.7110 C   0  0  0  0  0  0  0  0  0  0  0  0
   43.8590   35.5960   41.8720 C   0  0  0  0  0  0  0  0  0  0  0  0
   43.7670   34.2370   41.9050 C   0  0  0  0  0  0  0  0  0  0  0  0
   42.8730   33.6890   41.0300 O   0  0  0  0  0  0  0  0  0  0  0  0
   40.5890   33.1040   39.8830 O   0  0  0  0  0  0  0  0  0  0  0  0
   41.2290   33.3470   41.2270 P   0  0  0  0  0  0  0  0  0  0  0  0
   41.0640   31.9940   42.2360 O   0  0  0  0  0  0  0  0  0  0  0  0
   40.4250   34.6130   42.0210 O   0  0  0  0  0  0  0  0  0  0  0  0
   47.3900   32.6870   43.8910 C   0  0  0  0  0  0  0  0  0  0  0  0
   48.3240   33.2160   43.1050 C   0  0  0  0  0  0  0  0  0  0  0  0
   49.0970   32.2920   42.4330 C   0  0  0  0  0  0  0  0  0  0  0  0
   48.8310   30.9220   42.6440 N   0  0  0  0  0  0  0  0  0  0  0  0
   47.8980   30.4760   43.4350 C   0  0  0  0  0  0  0  0  0  0  0  0
   47.1030   31.3740   44.1220 N   0  0  0  0  0  0  0  0  0  0  0  0
   48.6780   34.5930   42.9810 C   0  0  1  0  0  0  0  0  0  0  0  0
   49.5800   35.1430   42.1210 C   0  0  0  0  0  0  0  0  0  0  0  0
   48.1660   35.3290   41.6740 C   0  0  1  0  0  0  0  0  0  0  0  0
   47.7120   34.4300   40.6470 N   0  0  0  0  0  0  0  0  0  0  0  0
   46.1154   36.0614   44.1911 H   0  0  0  0  0  0  0  0  0  0  0  0
   44.8127   37.3642   42.7027 H   0  0  0  0  0  0  0  0  0  0  0  0
   43.2360   36.1648   41.1661 H   0  0  0  0  0  0  0  0  0  0  0  0
   41.0991   32.2820   43.1825 H   0  0  0  0  0  0  0  0  0  0  0  0
   40.5028   34.4905   43.0003 H   0  0  0  0  0  0  0  0  0  0  0  0
   49.8984   32.6139   41.7517 H   0  0  0  0  0  0  0  0  0  0  0  0
   47.7437   29.3936   43.5555 H   0  0  0  0  0  0  0  0  0  0  0  0
   48.6052   34.6704   44.0759 H   0  0  0  0  0  0  0  0  0  0  0  0
   50.1521   36.0243   42.4467 H   0  0  0  0  0  0  0  0  0  0  0  0
   50.4597   34.7211   41.6130 H   0  0  0  0  0  0  0  0  0  0  0  0
   47.5092   36.1651   41.3918 H   0  0  0  0  0  0  0  0  0  0  0  0
   47.2911   33.5965   41.0818 H   0  0  0  0  0  0  0  0  0  0  0  0
   47.0092   34.9040   40.0619 H   0  0  0  0  0  0  0  0  0  0  0  0
  1  2  2  0
  4  3  1  0
  4  5  2  0
  5  1  1  0
  6  5  1  0
  7  6  2  0
  8  9  2  0
  8  7  1  0
  9  4  1  0
 10 12  1  0
 10  9  1  0
 11 12  2  0
 12 14  1  0
 12 13  1  0
 15 20  1  0
 15  1  1  0
 16 15  2  0
 17 18  2  0
 17 16  1  0
 18 19  1  0
 19 20  2  0
 21 16  1  0
 22 21  1  0
 23 22  1  0
 23 21  1  0
 24 23  1  0
  6 25  1  0
  7 26  1  0
  8 27  1  0
 13 28  1  0
 14 29  1  0
 17 30  1  0
 19 31  1  0
 21 32  1  1
 22 33  1  0
 22 34  1  0
 23 35  1  1
 24 36  1  0
 24 37  1  0
M  ISO  8  25  14  26  14  27  14  28   3  29   3  30  14  31  14  32  13
M  ISO  5  33  13  34  13  35  13  36   5  37   5
M  END
>  <minimizedAffinity>  (1) 
-5.57299614

>  <minimizedRMSD>  (1) 
0.201480016

$$$$
