
     RDKit          3D

 44 47  0  0  1  0  0  0  0  0999 V2000
   47.4030   32.7010   44.0750 C   0  0  0  0  0  0  0  0  0  0  0  0
   48.2480   33.1890   43.1870 C   0  0  0  0  0  0  0  0  0  0  0  0
   49.0740   32.2500   42.5910 C   0  0  0  0  0  0  0  0  0  0  0  0
   48.9270   30.9010   42.9950 N   0  0  0  0  0  0  0  0  0  0  0  0
   48.0660   30.4940   43.8870 C   0  0  0  0  0  0  0  0  0  0  0  0
   47.2290   31.4190   44.4920 N   0  0  0  0  0  0  0  0  0  0  0  0
   48.4860   34.5750   42.8570 C   0  0  1  0  0  0  0  0  0  0  0  0
   49.4840   35.0780   42.0950 C   0  0  0  0  0  0  0  0  0  0  0  0
   48.2020   34.9480   41.3210 C   0  0  1  0  0  0  0  0  0  0  0  0
   48.0710   33.8380   40.4540 N   0  0  0  0  0  0  0  0  0  0  0  0
   47.6060   34.2330   39.1730 C   0  0  0  0  0  0  0  0  0  0  0  0
   47.4980   33.1790   38.1010 C   0  0  0  0  0  0  0  0  0  0  0  0
   48.4080   34.4200   37.9740 C   0  0  0  0  0  0  0  0  0  0  0  0
   46.3620   33.4820   44.8000 C   0  0  0  0  0  0  0  0  0  0  0  0
   45.8010   33.8950   45.7700 O   0  0  0  0  0  0  0  0  0  0  0  0
   44.5040   31.7540   43.0220 Cl  0  0  0  0  0  0  0  0  0  0  0  0
   44.6020   33.4980   42.8790 C   0  0  0  0  0  0  0  0  0  0  0  0
   45.4880   34.1620   43.7700 C   0  0  0  0  0  0  0  0  0  0  0  0
   45.4620   35.5120   43.5550 C   0  0  0  0  0  0  0  0  0  0  0  0
   44.7790   36.2400   42.6980 C   0  0  0  0  0  0  0  0  0  0  0  0
   43.9340   35.5440   41.8540 C   0  0  0  0  0  0  0  0  0  0  0  0
   43.8410   34.1970   41.9380 C   0  0  0  0  0  0  0  0  0  0  0  0
   42.9680   33.6100   41.0540 O   0  0  0  0  0  0  0  0  0  0  0  0
   40.6960   33.0620   39.8660 O   0  0  0  0  0  0  0  0  0  0  0  0
   41.3120   33.3020   41.2180 P   0  0  0  0  0  0  0  0  0  0  0  0
   41.1050   31.9560   42.2330 O   0  0  0  0  0  0  0  0  0  0  0  0
   40.5050   34.5790   41.9910 O   0  0  0  0  0  0  0  0  0  0  0  0
   49.8158   32.5414   41.8328 H   0  0  0  0  0  0  0  0  0  0  0  0
   48.0049   29.4291   44.1559 H   0  0  0  0  0  0  0  0  0  0  0  0
   48.1740   34.8549   43.8740 H   0  0  0  0  0  0  0  0  0  0  0  0
   49.8617   36.0860   42.3215 H   0  0  0  0  0  0  0  0  0  0  0  0
   50.4982   34.7056   41.8882 H   0  0  0  0  0  0  0  0  0  0  0  0
   47.5475   35.5978   40.7215 H   0  0  0  0  0  0  0  0  0  0  0  0
   48.9893   33.3828   40.3514 H   0  0  0  0  0  0  0  0  0  0  0  0
   46.9390   34.9344   39.6956 H   0  0  0  0  0  0  0  0  0  0  0  0
   47.9336   32.1805   38.2538 H   0  0  0  0  0  0  0  0  0  0  0  0
   46.6882   32.7229   37.5127 H   0  0  0  0  0  0  0  0  0  0  0  0
   49.5011   34.3067   38.0212 H   0  0  0  0  0  0  0  0  0  0  0  0
   48.5224   35.2263   37.2346 H   0  0  0  0  0  0  0  0  0  0  0  0
   46.1278   36.0898   44.2129 H   0  0  0  0  0  0  0  0  0  0  0  0
   44.8745   37.3350   42.6557 H   0  0  0  0  0  0  0  0  0  0  0  0
   43.3339   36.0884   41.1100 H   0  0  0  0  0  0  0  0  0  0  0  0
   41.1496   32.2458   43.1786 H   0  0  0  0  0  0  0  0  0  0  0  0
   40.5752   34.4679   42.9722 H   0  0  0  0  0  0  0  0  0  0  0  0
  1  6  1  0
  1 14  1  0
  2  1  2  0
  3  4  2  0
  3  2  1  0
  4  5  1  0
  5  6  2  0
  7  2  1  0
  8  7  1  0
  9  8  1  0
  9  7  1  0
 10  9  1  0
 11 10  1  0
 12 11  1  0
 13 12  1  0
 13 11  1  0
 14 15  2  0
 17 16  1  0
 17 18  2  0
 18 14  1  0
 19 18  1  0
 20 19  2  0
 21 22  2  0
 21 20  1  0
 22 17  1  0
 23 25  1  0
 23 22  1  0
 24 25  2  0
 25 27  1  0
 25 26  1  0
  3 28  1  0
  5 29  1  0
  7 30  1  1
  8 31  1  0
  8 32  1  0
  9 33  1  1
 10 34  1  0
 11 35  1  0
 12 36  1  0
 12 37  1  0
 13 38  1  0
 13 39  1  0
 19 40  1  0
 20 41  1  0
 21 42  1  0
 26 43  1  0
 27 44  1  0
M  ISO  8  28  14  29  14  30  13  31  13  32  13  33  13  34   5  35  13
M  ISO  8  36  13  37  13  38  13  39  13  40  14  41  14  42  14  43   3
M  ISO  1  44   3
M  END
>  <minimizedAffinity>  (1) 
-5.73585033

>  <minimizedRMSD>  (1) 
0.444857925

$$$$
