
     RDKit          3D

 19 19  0  0  0  0  0  0  0  0999 V2000
   46.5570   32.5350   46.9830 C   0  0  0  0  0  0  0  0  0  0  0  0
   44.8110   35.1180   44.9340 C   0  0  0  0  0  0  0  0  0  0  0  0
   45.5110   35.0350   43.7220 C   0  0  0  0  0  0  0  0  0  0  0  0
   46.5590   34.1030   43.6330 C   0  0  0  0  0  0  0  0  0  0  0  0
   46.8540   33.3240   44.7110 N   0  0  0  0  0  0  0  0  0  0  0  0
   46.1410   33.4410   45.8750 C   0  0  0  0  0  0  0  0  0  0  0  0
   45.1450   34.3290   45.9530 N   0  0  0  0  0  0  0  0  0  0  0  0
   45.4790   31.7350   47.3390 O   0  0  0  0  0  0  0  0  0  0  0  0
   47.4030   30.9540   48.8670 O   0  0  0  0  0  0  0  0  0  0  0  0
   45.8880   31.0150   48.8250 P   0  0  0  0  0  0  0  0  0  0  0  0
   45.1960   29.4880   49.0100 O   0  0  0  0  0  0  0  0  0  0  0  0
   45.2990   31.9830   50.0780 O   0  0  0  0  0  0  0  0  0  0  0  0
   46.8748   33.1333   47.8496 H   0  0  0  0  0  0  0  0  0  0  0  0
   47.3961   31.9046   46.6537 H   0  0  0  0  0  0  0  0  0  0  0  0
   43.9848   35.8360   45.0431 H   0  0  0  0  0  0  0  0  0  0  0  0
   45.2485   35.6781   42.8690 H   0  0  0  0  0  0  0  0  0  0  0  0
   47.1357   34.0034   42.7016 H   0  0  0  0  0  0  0  0  0  0  0  0
   45.1029   29.2825   49.9739 H   0  0  0  0  0  0  0  0  0  0  0  0
   45.5438   31.5807   50.9488 H   0  0  0  0  0  0  0  0  0  0  0  0
  1  8  1  0
  2  7  2  0
  3  2  1  0
  4  3  2  0
  4  5  1  0
  5  6  2  0
  6  7  1  0
  6  1  1  0
  8 10  1  0
 10  9  2  0
 10 11  1  0
 10 12  1  0
  1 13  1  0
  1 14  1  0
  2 15  1  0
  3 16  1  0
  4 17  1  0
 11 18  1  0
 12 19  1  0
M  ISO  7  13   8  14   8  15  14  16  14  17  14  18   3  19   3
M  END
>  <minimizedAffinity>  (1) 
-4.24970245

>  <minimizedRMSD>  (1) 
1.59442627

$$$$
