
     RDKit          3D

 25 26  0  0  0  0  0  0  0  0999 V2000
   44.5780   35.9760   44.6380 C   0  0  0  0  0  0  0  0  0  0  0  0
   45.1520   36.1730   43.3720 C   0  0  0  0  0  0  0  0  0  0  0  0
   46.0120   35.1790   42.8920 C   0  0  0  0  0  0  0  0  0  0  0  0
   46.2560   34.0750   43.6610 N   0  0  0  0  0  0  0  0  0  0  0  0
   45.6700   33.9320   44.8920 C   0  0  0  0  0  0  0  0  0  0  0  0
   44.8530   34.8790   45.3450 N   0  0  0  0  0  0  0  0  0  0  0  0
   46.0230   32.6850   45.6200 C   0  0  0  0  0  0  0  0  0  0  0  0
   46.2040   32.9450   47.0290 N   0  0  0  0  0  0  0  0  0  0  0  0
   47.3830   32.2840   47.5560 C   0  0  0  0  0  0  0  0  0  0  0  0
   46.9900   31.6460   48.8650 C   0  0  0  0  0  0  0  0  0  0  0  0
   45.5300   31.2800   48.5770 C   0  0  0  0  0  0  0  0  0  0  0  0
   45.1000   32.5620   47.8530 C   0  0  0  0  0  0  0  0  0  0  0  0
   43.8952   36.7333   45.0506 H   0  0  0  0  0  0  0  0  0  0  0  0
   44.9340   37.0742   42.7801 H   0  0  0  0  0  0  0  0  0  0  0  0
   46.4872   35.2847   41.9056 H   0  0  0  0  0  0  0  0  0  0  0  0
   45.2142   31.9508   45.4902 H   0  0  0  0  0  0  0  0  0  0  0  0
   46.9661   32.2938   45.2106 H   0  0  0  0  0  0  0  0  0  0  0  0
   47.7302   31.5143   46.8510 H   0  0  0  0  0  0  0  0  0  0  0  0
   48.2012   33.0044   47.7032 H   0  0  0  0  0  0  0  0  0  0  0  0
   47.5967   30.7538   49.0791 H   0  0  0  0  0  0  0  0  0  0  0  0
   47.1340   32.2879   49.7466 H   0  0  0  0  0  0  0  0  0  0  0  0
   45.4466   30.3936   47.9309 H   0  0  0  0  0  0  0  0  0  0  0  0
   44.9278   31.0086   49.4566 H   0  0  0  0  0  0  0  0  0  0  0  0
   44.8755   33.3545   48.5821 H   0  0  0  0  0  0  0  0  0  0  0  0
   44.1914   32.3987   47.2548 H   0  0  0  0  0  0  0  0  0  0  0  0
  1  6  2  0
  2  1  1  0
  3  2  2  0
  3  4  1  0
  4  5  2  0
  5  6  1  0
  5  7  1  0
  7  8  1  0
  8  9  1  0
  8 12  1  0
  9 10  1  0
 11 10  1  0
 12 11  1  0
  1 13  1  0
  2 14  1  0
  3 15  1  0
  7 16  1  0
  7 17  1  0
  9 18  1  0
  9 19  1  0
 10 20  1  0
 10 21  1  0
 11 22  1  0
 11 23  1  0
 12 24  1  0
 12 25  1  0
M  ISO  8  13  14  14  14  15  14  16   8  17   8  18  13  19  13  20  13
M  ISO  5  21  13  22  13  23  13  24  13  25  13
M  END
>  <minimizedAffinity>  (1) 
-4.13217974

>  <minimizedRMSD>  (1) 
1.13190055

$$$$
