
     RDKit          3D

 28 29  0  0  0  0  0  0  0  0999 V2000
   47.7600   29.7810   47.8990 C   0  0  0  0  0  0  0  0  0  0  0  0
   47.3590   31.0770   48.1420 C   0  0  0  0  0  0  0  0  0  0  0  0
   48.1840   31.9480   48.8210 C   0  0  0  0  0  0  0  0  0  0  0  0
   49.4340   31.5960   49.2950 C   0  0  0  0  0  0  0  0  0  0  0  0
   49.8320   30.2970   49.0500 C   0  0  0  0  0  0  0  0  0  0  0  0
   49.0230   29.4080   48.3720 C   0  0  0  0  0  0  0  0  0  0  0  0
   47.0820   28.6040   45.9260 N   0  0  0  0  0  0  0  0  0  0  0  0
   47.0330   28.7260   47.2030 C   0  0  0  0  0  0  0  0  0  0  0  0
   46.2320   27.7710   47.8820 N   0  0  0  0  0  0  0  0  0  0  0  0
   46.5640   27.8540   45.4410 H   0  0  0  0  0  0  0  0  0  0  0  0
   46.0260   31.4270   47.6280 C   0  0  0  0  0  0  0  0  0  0  0  0
   45.6190   34.2330   45.2130 C   0  0  0  0  0  0  0  0  0  0  0  0
   46.4630   33.8460   44.1700 C   0  0  0  0  0  0  0  0  0  0  0  0
   47.1450   32.6450   44.3140 C   0  0  0  0  0  0  0  0  0  0  0  0
   46.9720   31.9020   45.4460 N   0  0  0  0  0  0  0  0  0  0  0  0
   46.1310   32.3330   46.4340 C   0  0  0  0  0  0  0  0  0  0  0  0
   45.4730   33.4840   46.3010 N   0  0  0  0  0  0  0  0  0  0  0  0
   47.8298   32.9749   48.9944 H   0  0  0  0  0  0  0  0  0  0  0  0
   50.0739   32.3090   49.8356 H   0  0  0  0  0  0  0  0  0  0  0  0
   50.8183   29.9623   49.4039 H   0  0  0  0  0  0  0  0  0  0  0  0
   49.3795   28.3818   48.1993 H   0  0  0  0  0  0  0  0  0  0  0  0
   46.1457   27.8072   48.9077 H   0  0  0  0  0  0  0  0  0  0  0  0
   45.7370   27.0418   47.3490 H   0  0  0  0  0  0  0  0  0  0  0  0
   45.4998   30.5063   47.3359 H   0  0  0  0  0  0  0  0  0  0  0  0
   45.4717   31.9526   48.4195 H   0  0  0  0  0  0  0  0  0  0  0  0
   45.0628   35.1786   45.1323 H   0  0  0  0  0  0  0  0  0  0  0  0
   46.5828   34.4676   43.2704 H   0  0  0  0  0  0  0  0  0  0  0  0
   47.8210   32.2943   43.5202 H   0  0  0  0  0  0  0  0  0  0  0  0
  1  2  2  0
  1  6  1  0
  2  3  1  0
  3  4  2  0
  5  4  1  0
  6  5  2  0
  7  8  2  0
  8  9  1  0
  8  1  1  0
 10  7  1  0
 11  2  1  0
 12 17  2  0
 13 14  2  0
 13 12  1  0
 14 15  1  0
 15 16  2  0
 16 11  1  0
 17 16  1  0
  3 18  1  0
  4 19  1  0
  5 20  1  0
  6 21  1  0
  9 22  1  0
  9 23  1  0
 11 24  1  0
 11 25  1  0
 12 26  1  0
 13 27  1  0
 14 28  1  0
M  ISO  8  18  14  19  14  20  14  21  14  24   8  25   8  26  14  27  14
M  ISO  1  28  14
M  END
>  <minimizedAffinity>  (1) 
-3.92793369

>  <minimizedRMSD>  (1) 
2.85096335

$$$$
