
     RDKit          3D

 20 21  0  0  0  0  0  0  0  0999 V2000
   44.5320   35.5900   44.9980 C   0  0  0  0  0  0  0  0  0  0  0  0
   45.1000   35.6620   43.7280 C   0  0  0  0  0  0  0  0  0  0  0  0
   46.0860   34.7130   43.4120 C   0  0  0  0  0  0  0  0  0  0  0  0
   46.4340   33.7850   44.3440 N   0  0  0  0  0  0  0  0  0  0  0  0
   45.8520   33.7530   45.5690 C   0  0  0  0  0  0  0  0  0  0  0  0
   44.9160   34.6560   45.8650 N   0  0  0  0  0  0  0  0  0  0  0  0
   46.3130   32.6920   46.5080 C   0  0  0  0  0  0  0  0  0  0  0  0
   45.3470   32.6900   47.6830 C   0  0  0  0  0  0  0  0  0  0  0  0
   44.8510   31.4460   48.2880 C   0  0  0  0  0  0  0  0  0  0  0  0
   45.9390   32.2670   48.9770 C   0  0  0  0  0  0  0  0  0  0  0  0
   43.7564   36.3142   45.2879 H   0  0  0  0  0  0  0  0  0  0  0  0
   44.7895   36.4294   43.0036 H   0  0  0  0  0  0  0  0  0  0  0  0
   46.5703   34.7200   42.4244 H   0  0  0  0  0  0  0  0  0  0  0  0
   46.3011   31.7127   46.0072 H   0  0  0  0  0  0  0  0  0  0  0  0
   47.3420   32.8853   46.8452 H   0  0  0  0  0  0  0  0  0  0  0  0
   44.8085   33.5640   47.2879 H   0  0  0  0  0  0  0  0  0  0  0  0
   43.8375   31.4053   48.7137 H   0  0  0  0  0  0  0  0  0  0  0  0
   44.7513   30.4016   47.9574 H   0  0  0  0  0  0  0  0  0  0  0  0
   46.9729   31.8937   49.0180 H   0  0  0  0  0  0  0  0  0  0  0  0
   46.0711   32.7238   49.9689 H   0  0  0  0  0  0  0  0  0  0  0  0
  1  6  2  0
  2  1  1  0
  3  2  2  0
  3  4  1  0
  4  5  2  0
  5  6  1  0
  5  7  1  0
  7  8  1  0
  8  9  1  0
  8 10  1  0
  9 10  1  0
  1 11  1  0
  2 12  1  0
  3 13  1  0
  7 14  1  0
  7 15  1  0
  8 16  1  0
  9 17  1  0
  9 18  1  0
 10 19  1  0
 10 20  1  0
M  ISO  8  11  14  12  14  13  14  14   8  15   8  16  13  17  13  18  13
M  ISO  2  19  13  20  13
M  END
>  <minimizedAffinity>  (1) 
-3.88902092

>  <minimizedRMSD>  (1) 
1.76465678

$$$$
