
     RDKit          3D

 23 24  0  0  0  0  0  0  0  0999 V2000
   46.0660   31.3630   45.3620 C   0  0  0  0  0  0  0  0  0  0  0  0
   47.7540   28.8230   45.6890 Cl  0  0  0  0  0  0  0  0  0  0  0  0
   47.7880   30.1790   46.7950 C   0  0  0  0  0  0  0  0  0  0  0  0
   46.9810   31.2630   46.5380 C   0  0  0  0  0  0  0  0  0  0  0  0
   47.0240   32.3210   47.4240 C   0  0  0  0  0  0  0  0  0  0  0  0
   47.8410   32.3230   48.5440 C   0  0  0  0  0  0  0  0  0  0  0  0
   48.6530   31.2270   48.8010 C   0  0  0  0  0  0  0  0  0  0  0  0
   49.7360   31.0550   50.1580 Cl  0  0  0  0  0  0  0  0  0  0  0  0
   48.6190   30.1490   47.9100 C   0  0  0  0  0  0  0  0  0  0  0  0
   45.8270   34.6370   43.6070 C   0  0  0  0  0  0  0  0  0  0  0  0
   47.0620   34.6960   42.9480 C   0  0  0  0  0  0  0  0  0  0  0  0
   47.9400   33.6310   43.1150 C   0  0  0  0  0  0  0  0  0  0  0  0
   47.5590   32.5940   43.9040 N   0  0  0  0  0  0  0  0  0  0  0  0
   46.3500   32.5610   44.5320 C   0  0  0  0  0  0  0  0  0  0  0  0
   45.5230   33.5880   44.3610 N   0  0  0  0  0  0  0  0  0  0  0  0
   46.1884   30.4639   44.7402 H   0  0  0  0  0  0  0  0  0  0  0  0
   45.0369   31.4502   45.7407 H   0  0  0  0  0  0  0  0  0  0  0  0
   46.3853   33.1962   47.2339 H   0  0  0  0  0  0  0  0  0  0  0  0
   47.8457   33.1873   49.2244 H   0  0  0  0  0  0  0  0  0  0  0  0
   49.2548   29.2702   48.0927 H   0  0  0  0  0  0  0  0  0  0  0  0
   45.1076   35.4621   43.4992 H   0  0  0  0  0  0  0  0  0  0  0  0
   47.3285   35.5577   42.3184 H   0  0  0  0  0  0  0  0  0  0  0  0
   48.9217   33.6287   42.6188 H   0  0  0  0  0  0  0  0  0  0  0  0
  1  4  1  0
  2  3  1  0
  3  9  2  0
  4  3  1  0
  4  5  2  0
  5  6  1  0
  6  7  2  0
  7  8  1  0
  9  7  1  0
 10 15  2  0
 11 12  2  0
 11 10  1  0
 12 13  1  0
 13 14  2  0
 14  1  1  0
 15 14  1  0
  1 16  1  0
  1 17  1  0
  5 18  1  0
  6 19  1  0
  9 20  1  0
 10 21  1  0
 11 22  1  0
 12 23  1  0
M  ISO  8  16   8  17   8  18  14  19  14  20  14  21  14  22  14  23  14
M  END
>  <minimizedAffinity>  (1) 
-3.81381774

>  <minimizedRMSD>  (1) 
2.54311156

$$$$
