
     RDKit          3D

 27 29  0  0  0  0  0  0  0  0999 V2000
   46.5440   31.4160   48.6710 S   0  0  0  0  0  0  0  0  0  0  0  0
   47.0640   32.1090   45.9600 C   0  0  0  0  0  0  0  0  0  0  0  0
   46.3770   32.3250   47.1360 C   0  0  0  0  0  0  0  0  0  0  0  0
   45.4330   33.3430   47.2160 C   0  0  0  0  0  0  0  0  0  0  0  0
   45.1630   34.1540   46.1320 C   0  0  0  0  0  0  0  0  0  0  0  0
   44.3490   35.1920   45.8670 N   0  0  0  0  0  0  0  0  0  0  0  0
   44.4910   35.6250   44.6070 C   0  0  0  0  0  0  0  0  0  0  0  0
   45.4380   34.8220   44.0630 N   0  0  0  0  0  0  0  0  0  0  0  0
   45.8640   33.9200   44.9670 C   0  0  0  0  0  0  0  0  0  0  0  0
   46.8030   32.9130   44.8730 C   0  0  0  0  0  0  0  0  0  0  0  0
   47.9080   30.2180   48.4860 C   0  0  0  0  0  0  0  0  0  0  0  0
   50.5070   30.2940   51.1310 C   0  0  0  0  0  0  0  0  0  0  0  0
   51.0170   31.5890   50.9630 C   0  0  0  0  0  0  0  0  0  0  0  0
   50.4780   32.4140   49.9620 C   0  0  0  0  0  0  0  0  0  0  0  0
   49.4670   31.9330   49.1740 N   0  0  0  0  0  0  0  0  0  0  0  0
   49.0010   30.6710   49.3710 C   0  0  0  0  0  0  0  0  0  0  0  0
   49.5190   29.8830   50.3310 N   0  0  0  0  0  0  0  0  0  0  0  0
   47.8111   31.3046   45.8911 H   0  0  0  0  0  0  0  0  0  0  0  0
   44.8918   33.5049   48.1599 H   0  0  0  0  0  0  0  0  0  0  0  0
   43.6964   35.6035   46.5494 H   0  0  0  0  0  0  0  0  0  0  0  0
   43.9552   36.4528   44.1196 H   0  0  0  0  0  0  0  0  0  0  0  0
   47.3436   32.7524   43.9286 H   0  0  0  0  0  0  0  0  0  0  0  0
   47.5722   29.2137   48.7835 H   0  0  0  0  0  0  0  0  0  0  0  0
   48.2452   30.1641   47.4403 H   0  0  0  0  0  0  0  0  0  0  0  0
   50.9128   29.6285   51.9072 H   0  0  0  0  0  0  0  0  0  0  0  0
   51.8298   31.9548   51.6076 H   0  0  0  0  0  0  0  0  0  0  0  0
   50.8633   33.4335   49.8131 H   0  0  0  0  0  0  0  0  0  0  0  0
  2  3  2  0
  3  4  1  0
  3  1  1  0
  5  4  2  0
  6  5  1  0
  7  6  1  0
  8  7  2  0
  8  9  1  0
  9  5  1  0
 10  9  2  0
 10  2  1  0
 11  1  1  0
 11 16  1  0
 13 12  2  0
 14 13  1  0
 15 16  1  0
 15 14  2  0
 16 17  2  0
 17 12  1  0
  2 18  1  0
  4 19  1  0
  6 20  1  0
  7 21  1  0
 10 22  1  0
 11 23  1  0
 11 24  1  0
 12 25  1  0
 13 26  1  0
 14 27  1  0
M  ISO  8  18  14  19  14  20   9  21  14  22  14  23   8  24   8  25  14
M  ISO  2  26  14  27  14
M  END
>  <minimizedAffinity>  (1) 
-4.98496199

>  <minimizedRMSD>  (1) 
7.33927107

$$$$
