
     RDKit          3D

 34 36  0  0  1  0  0  0  0  0999 V2000
   42.8950   33.7970   40.3300 C   0  0  0  0  0  0  0  0  0  0  0  0
   41.8840   32.9320   40.2840 C   0  0  0  0  0  0  0  0  0  0  0  0
   40.6130   33.3440   39.8010 N   0  0  0  0  0  0  0  0  0  0  0  0
   39.1960   33.3360   40.0980 C   0  0  0  0  0  0  0  0  0  0  0  0
   38.3710   32.7300   40.8650 O   0  0  0  0  0  0  0  0  0  0  0  0
   39.0510   34.4110   39.0660 C   0  0  0  0  0  0  0  0  0  0  0  0
   40.4270   34.0710   38.5330 C   0  0  1  0  0  0  0  0  0  0  0  0
   41.6240   35.3980   38.4880 S   0  0  0  0  0  0  0  0  0  0  0  0
   42.7320   35.2050   39.9060 C   0  0  0  0  0  0  0  0  0  0  0  0
   42.0080   31.5210   40.7070 C   0  0  0  0  0  0  0  0  0  0  0  0
   41.9980   30.4990   39.9740 O   0  0  0  0  0  0  0  0  0  0  0  0
   42.1570   30.5030   41.6270 O   0  0  0  0  0  0  0  0  0  0  0  0
   44.1800   33.2910   40.8290 C   0  0  0  0  0  0  0  0  0  0  0  0
   44.6200   33.8100   42.4830 S   0  0  0  0  0  0  0  0  0  0  0  0
   45.6360   35.3000   42.5460 C   0  0  0  0  0  0  0  0  0  0  0  0
   49.3200   35.1590   41.9400 C   0  0  0  0  0  0  0  0  0  0  0  0
   49.6270   33.9140   42.4670 C   0  0  0  0  0  0  0  0  0  0  0  0
   48.6070   33.1450   43.0120 C   0  0  0  0  0  0  0  0  0  0  0  0
   47.3390   33.6290   43.0170 N   0  0  0  0  0  0  0  0  0  0  0  0
   47.0640   34.8650   42.4890 C   0  0  0  0  0  0  0  0  0  0  0  0
   48.0550   35.5860   41.9710 N   0  0  0  0  0  0  0  0  0  0  0  0
   38.2349   34.2397   38.3486 H   0  0  0  0  0  0  0  0  0  0  0  0
   38.8037   35.4413   39.3614 H   0  0  0  0  0  0  0  0  0  0  0  0
   40.5237   33.6652   37.5152 H   0  0  0  0  0  0  0  0  0  0  0  0
   43.7201   35.6052   39.6348 H   0  0  0  0  0  0  0  0  0  0  0  0
   42.2828   35.7506   40.7489 H   0  0  0  0  0  0  0  0  0  0  0  0
   42.1830   29.5611   41.3232 H   0  0  0  0  0  0  0  0  0  0  0  0
   44.1390   32.1918   40.8181 H   0  0  0  0  0  0  0  0  0  0  0  0
   44.9494   33.7119   40.1650 H   0  0  0  0  0  0  0  0  0  0  0  0
   45.4056   35.9496   41.6887 H   0  0  0  0  0  0  0  0  0  0  0  0
   45.4379   35.8685   43.4666 H   0  0  0  0  0  0  0  0  0  0  0  0
   50.1090   35.7877   41.5015 H   0  0  0  0  0  0  0  0  0  0  0  0
   50.6618   33.5412   42.4537 H   0  0  0  0  0  0  0  0  0  0  0  0
   48.8246   32.1534   43.4355 H   0  0  0  0  0  0  0  0  0  0  0  0
  1 13  1  0
  2  1  2  0
  2 10  1  0
  3  4  1  0
  3  2  1  0
  4  5  2  0
  6  4  1  0
  7  8  1  0
  7  6  1  0
  7  3  1  0
  8  9  1  0
  9  1  1  0
 10 12  1  0
 11 10  2  0
 13 14  1  0
 14 15  1  0
 16 21  2  0
 16 17  1  0
 17 18  2  0
 18 19  1  0
 20 15  1  0
 20 19  2  0
 21 20  1  0
  6 22  1  0
  6 23  1  0
  7 24  1  6
  9 25  1  0
  9 26  1  0
 12 27  1  0
 13 28  1  0
 13 29  1  0
 15 30  1  0
 15 31  1  0
 16 32  1  0
 17 33  1  0
 18 34  1  0
M  ISO  8  22  13  23  13  24  13  25  13  26  13  27   3  28   8  29   8
M  ISO  5  30   8  31   8  32  14  33  14  34  14
M  END
>  <minimizedAffinity>  (1) 
-4.47426271

>  <minimizedRMSD>  (1) 
4.76332903

$$$$
