
     RDKit          3D

 21 22  0  0  0  0  0  0  0  0999 V2000
   45.5000   33.2180   46.8570 C   0  0  0  0  0  0  0  0  0  0  0  0
   44.5860   35.9590   44.5230 C   0  0  0  0  0  0  0  0  0  0  0  0
   45.3380   35.6200   43.4060 C   0  0  0  0  0  0  0  0  0  0  0  0
   46.1320   34.4840   43.4570 C   0  0  0  0  0  0  0  0  0  0  0  0
   46.1650   33.7230   44.5920 N   0  0  0  0  0  0  0  0  0  0  0  0
   45.4180   34.0870   45.6610 C   0  0  0  0  0  0  0  0  0  0  0  0
   44.6420   35.1880   45.6260 N   0  0  0  0  0  0  0  0  0  0  0  0
   46.2800   31.6560   46.3100 S   0  0  0  0  0  0  0  0  0  0  0  0
   47.4820   31.2300   47.5130 C   0  0  0  0  0  0  0  0  0  0  0  0
   48.0880   31.8980   48.5100 C   0  0  0  0  0  0  0  0  0  0  0  0
   49.0080   31.3390   49.3260 C   0  0  0  0  0  0  0  0  0  0  0  0
   49.2670   29.9340   49.0030 C   0  0  0  0  0  0  0  0  0  0  0  0
   48.1890   29.5830   47.6010 S   0  0  0  0  0  0  0  0  0  0  0  0
   46.1134   33.6975   47.6341 H   0  0  0  0  0  0  0  0  0  0  0  0
   44.5037   33.0366   47.2865 H   0  0  0  0  0  0  0  0  0  0  0  0
   43.9468   36.8541   44.5071 H   0  0  0  0  0  0  0  0  0  0  0  0
   45.3046   36.2404   42.4983 H   0  0  0  0  0  0  0  0  0  0  0  0
   46.7354   34.1953   42.5838 H   0  0  0  0  0  0  0  0  0  0  0  0
   47.8211   32.9532   48.6693 H   0  0  0  0  0  0  0  0  0  0  0  0
   49.5078   31.8796   50.1433 H   0  0  0  0  0  0  0  0  0  0  0  0
   49.9640   29.2462   49.5042 H   0  0  0  0  0  0  0  0  0  0  0  0
  2  7  2  0
  3  4  2  0
  3  2  1  0
  4  5  1  0
  5  6  2  0
  6  1  1  0
  7  6  1  0
  8  1  1  0
  8  9  1  0
  9 13  1  0
  9 10  2  0
 10 11  1  0
 12 11  2  0
 13 12  1  0
  1 14  1  0
  1 15  1  0
  2 16  1  0
  3 17  1  0
  4 18  1  0
 10 19  1  0
 11 20  1  0
 12 21  1  0
M  ISO  8  14   8  15   8  16  14  17  14  18  14  19  14  20  14  21  14
M  END
>  <minimizedAffinity>  (1) 
-3.9751966

>  <minimizedRMSD>  (1) 
1.38253593

$$$$
