
     RDKit          3D

 20 20  0  0  0  0  0  0  0  0999 V2000
   44.5370   36.0690   44.4730 C   0  0  0  0  0  0  0  0  0  0  0  0
   45.2510   35.8790   43.3040 C   0  0  0  0  0  0  0  0  0  0  0  0
   46.0950   34.7810   43.2340 C   0  0  0  0  0  0  0  0  0  0  0  0
   46.1800   33.9530   44.3100 N   0  0  0  0  0  0  0  0  0  0  0  0
   45.4720   34.1660   45.4390 C   0  0  0  0  0  0  0  0  0  0  0  0
   44.6580   35.2240   45.5030 N   0  0  0  0  0  0  0  0  0  0  0  0
   45.6560   33.1840   46.5300 C   0  0  0  0  0  0  0  0  0  0  0  0
   46.8280   31.9340   45.9480 S   0  0  0  0  0  0  0  0  0  0  0  0
   47.5610   30.9500   47.2400 C   0  0  0  0  0  0  0  0  0  0  0  0
   47.8240   31.8680   48.4280 C   0  0  0  0  0  0  0  0  0  0  0  0
   43.8577   36.9300   44.5574 H   0  0  0  0  0  0  0  0  0  0  0  0
   45.1527   36.5754   42.4582 H   0  0  0  0  0  0  0  0  0  0  0  0
   46.6842   34.5834   42.3263 H   0  0  0  0  0  0  0  0  0  0  0  0
   46.0558   33.6861   47.4233 H   0  0  0  0  0  0  0  0  0  0  0  0
   44.6958   32.7188   46.7975 H   0  0  0  0  0  0  0  0  0  0  0  0
   46.8721   30.1444   47.5341 H   0  0  0  0  0  0  0  0  0  0  0  0
   48.4986   30.4924   46.8913 H   0  0  0  0  0  0  0  0  0  0  0  0
   47.6646   31.3118   49.3635 H   0  0  0  0  0  0  0  0  0  0  0  0
   48.8620   32.2300   48.3889 H   0  0  0  0  0  0  0  0  0  0  0  0
   47.1352   32.7247   48.3889 H   0  0  0  0  0  0  0  0  0  0  0  0
  1  6  2  0
  2  1  1  0
  3  2  2  0
  3  4  1  0
  4  5  2  0
  5  6  1  0
  5  7  1  0
  8  7  1  0
  8  9  1  0
  9 10  1  0
  1 11  1  0
  2 12  1  0
  3 13  1  0
  7 14  1  0
  7 15  1  0
  9 16  1  0
  9 17  1  0
 10 18  1  0
 10 19  1  0
 10 20  1  0
M  ISO  8  11  14  12  14  13  14  14   8  15   8  16   8  17   8  18   8
M  ISO  2  19   8  20   8
M  END
>  <minimizedAffinity>  (1) 
-3.2931776

>  <minimizedRMSD>  (1) 
1.49954045

$$$$
