
     RDKit          3D

 29 31  0  0  0  0  0  0  0  0999 V2000
   46.5530   31.6910   46.0420 S   0  0  0  0  0  0  0  0  0  0  0  0
   47.6080   31.0720   47.3470 C   0  0  0  0  0  0  0  0  0  0  0  0
   47.9440   31.9320   48.3790 C   0  0  0  0  0  0  0  0  0  0  0  0
   48.7540   31.4370   49.3700 C   0  0  0  0  0  0  0  0  0  0  0  0
   49.2350   30.1290   49.3720 C   0  0  0  0  0  0  0  0  0  0  0  0
   50.0260   29.7060   50.3740 N   0  0  0  0  0  0  0  0  0  0  0  0
   50.5010   28.4390   50.3890 C   0  0  0  0  0  0  0  0  0  0  0  0
   50.1730   27.5870   49.3720 C   0  0  0  0  0  0  0  0  0  0  0  0
   49.3610   28.0290   48.3480 C   0  0  0  0  0  0  0  0  0  0  0  0
   48.8550   29.3310   48.3060 C   0  0  0  0  0  0  0  0  0  0  0  0
   48.0450   29.7650   47.2780 C   0  0  0  0  0  0  0  0  0  0  0  0
   45.6230   33.1290   46.6410 C   0  0  0  0  0  0  0  0  0  0  0  0
   44.5830   35.9860   44.4930 C   0  0  0  0  0  0  0  0  0  0  0  0
   45.3380   35.7350   43.3400 C   0  0  0  0  0  0  0  0  0  0  0  0
   46.1810   34.6090   43.3110 C   0  0  0  0  0  0  0  0  0  0  0  0
   46.2420   33.7910   44.4030 N   0  0  0  0  0  0  0  0  0  0  0  0
   45.4880   34.0730   45.5110 C   0  0  0  0  0  0  0  0  0  0  0  0
   44.6840   35.1520   45.5310 N   0  0  0  0  0  0  0  0  0  0  0  0
   47.5770   32.9687   48.4034 H   0  0  0  0  0  0  0  0  0  0  0  0
   49.0361   32.1021   50.1995 H   0  0  0  0  0  0  0  0  0  0  0  0
   51.1455   28.0978   51.2125 H   0  0  0  0  0  0  0  0  0  0  0  0
   50.5541   26.5551   49.3699 H   0  0  0  0  0  0  0  0  0  0  0  0
   49.1029   27.3326   47.5366 H   0  0  0  0  0  0  0  0  0  0  0  0
   47.7618   29.1035   46.4460 H   0  0  0  0  0  0  0  0  0  0  0  0
   44.6279   32.8145   46.9886 H   0  0  0  0  0  0  0  0  0  0  0  0
   46.1461   33.6052   47.4834 H   0  0  0  0  0  0  0  0  0  0  0  0
   43.9155   36.8589   44.5427 H   0  0  0  0  0  0  0  0  0  0  0  0
   45.2728   36.4072   42.4717 H   0  0  0  0  0  0  0  0  0  0  0  0
   46.7848   34.3897   42.4180 H   0  0  0  0  0  0  0  0  0  0  0  0
  1 12  1  0
  1  2  1  0
  2  3  2  0
  3  4  1  0
  4  5  2  0
  5  6  1  0
  6  7  2  0
  8  7  1  0
  9  8  2  0
 10  9  1  0
 10  5  1  0
 11  2  1  0
 11 10  2  0
 13 18  2  0
 14 13  1  0
 15 14  2  0
 15 16  1  0
 16 17  2  0
 17 18  1  0
 17 12  1  0
  3 19  1  0
  4 20  1  0
  7 21  1  0
  8 22  1  0
  9 23  1  0
 11 24  1  0
 12 25  1  0
 12 26  1  0
 13 27  1  0
 14 28  1  0
 15 29  1  0
M  ISO  8  19  14  20  14  21  14  22  14  23  14  24  14  25   8  26   8
M  ISO  3  27  14  28  14  29  14
M  END
>  <minimizedAffinity>  (1) 
-4.92728376

>  <minimizedRMSD>  (1) 
1.66379917

$$$$
