
     RDKit          3D

 44 47  0  0  0  0  0  0  0  0999 V2000
   45.6230   33.1420   46.5990 C   0  0  0  0  0  0  0  0  0  0  0  0
   44.6400   35.9190   44.3160 C   0  0  0  0  0  0  0  0  0  0  0  0
   45.5500   35.7220   43.2550 C   0  0  0  0  0  0  0  0  0  0  0  0
   46.4730   34.6560   43.3370 C   0  0  0  0  0  0  0  0  0  0  0  0
   46.4570   33.8490   44.4380 N   0  0  0  0  0  0  0  0  0  0  0  0
   45.5600   34.0750   45.4420 C   0  0  0  0  0  0  0  0  0  0  0  0
   44.6690   35.0950   45.3770 N   0  0  0  0  0  0  0  0  0  0  0  0
   47.4260   34.3530   42.3550 N   0  0  0  0  0  0  0  0  0  0  0  0
   48.2630   35.3290   41.7080 C   0  0  0  0  0  0  0  0  0  0  0  0
   49.6550   35.1990   42.3220 C   0  0  0  0  0  0  0  0  0  0  0  0
   50.0630   33.7470   42.2060 C   0  0  0  0  0  0  0  0  0  0  0  0
   49.0900   32.9600   41.3540 C   0  0  0  0  0  0  0  0  0  0  0  0
   47.6730   33.0070   41.8800 C   0  0  0  0  0  0  0  0  0  0  0  0
   46.5100   31.6750   46.0420 S   0  0  0  0  0  0  0  0  0  0  0  0
   47.5730   31.0570   47.3290 C   0  0  0  0  0  0  0  0  0  0  0  0
   47.8970   31.9190   48.3490 C   0  0  0  0  0  0  0  0  0  0  0  0
   48.7140   31.4600   49.3560 C   0  0  0  0  0  0  0  0  0  0  0  0
   49.2190   30.1710   49.3770 C   0  0  0  0  0  0  0  0  0  0  0  0
   50.0120   29.7530   50.3730 N   0  0  0  0  0  0  0  0  0  0  0  0
   50.5070   28.5050   50.4070 C   0  0  0  0  0  0  0  0  0  0  0  0
   50.1870   27.6350   49.3880 C   0  0  0  0  0  0  0  0  0  0  0  0
   49.3650   28.0470   48.3450 C   0  0  0  0  0  0  0  0  0  0  0  0
   48.8490   29.3560   48.3140 C   0  0  0  0  0  0  0  0  0  0  0  0
   48.0340   29.7680   47.2830 C   0  0  0  0  0  0  0  0  0  0  0  0
   46.1593   33.6131   47.4359 H   0  0  0  0  0  0  0  0  0  0  0  0
   44.6135   32.8818   46.9500 H   0  0  0  0  0  0  0  0  0  0  0  0
   43.9115   36.7421   44.2745 H   0  0  0  0  0  0  0  0  0  0  0  0
   45.5405   36.3874   42.3792 H   0  0  0  0  0  0  0  0  0  0  0  0
   47.8668   36.3406   41.8805 H   0  0  0  0  0  0  0  0  0  0  0  0
   48.2954   35.1605   40.6215 H   0  0  0  0  0  0  0  0  0  0  0  0
   50.3679   35.8352   41.7770 H   0  0  0  0  0  0  0  0  0  0  0  0
   49.6483   35.5192   43.3744 H   0  0  0  0  0  0  0  0  0  0  0  0
   51.0622   33.6926   41.7492 H   0  0  0  0  0  0  0  0  0  0  0  0
   50.0676   33.3097   43.2153 H   0  0  0  0  0  0  0  0  0  0  0  0
   49.4186   31.9106   41.3250 H   0  0  0  0  0  0  0  0  0  0  0  0
   49.0850   33.4162   40.3531 H   0  0  0  0  0  0  0  0  0  0  0  0
   46.9658   32.7577   41.0752 H   0  0  0  0  0  0  0  0  0  0  0  0
   47.5391   32.2796   42.6942 H   0  0  0  0  0  0  0  0  0  0  0  0
   47.5129   32.9497   48.3599 H   0  0  0  0  0  0  0  0  0  0  0  0
   48.9764   32.1438   50.1767 H   0  0  0  0  0  0  0  0  0  0  0  0
   51.1567   28.1831   51.2342 H   0  0  0  0  0  0  0  0  0  0  0  0
   50.5838   26.6091   49.3995 H   0  0  0  0  0  0  0  0  0  0  0  0
   49.1158   27.3436   47.5369 H   0  0  0  0  0  0  0  0  0  0  0  0
   47.7650   29.0913   46.4585 H   0  0  0  0  0  0  0  0  0  0  0  0
  2  7  2  0
  3  4  2  0
  3  2  1  0
  4  5  1  0
  5  6  2  0
  6  1  1  0
  7  6  1  0
  8  4  1  0
  9 10  1  0
  9  8  1  0
 11 10  1  0
 12 13  1  0
 12 11  1  0
 13  8  1  0
 14  1  1  0
 14 15  1  0
 15 16  2  0
 16 17  1  0
 17 18  2  0
 18 19  1  0
 19 20  2  0
 21 20  1  0
 22 21  2  0
 23 22  1  0
 23 18  1  0
 24 15  1  0
 24 23  2  0
  1 25  1  0
  1 26  1  0
  2 27  1  0
  3 28  1  0
  9 29  1  0
  9 30  1  0
 10 31  1  0
 10 32  1  0
 11 33  1  0
 11 34  1  0
 12 35  1  0
 12 36  1  0
 13 37  1  0
 13 38  1  0
 16 39  1  0
 17 40  1  0
 20 41  1  0
 21 42  1  0
 22 43  1  0
 24 44  1  0
M  ISO  8  25   8  26   8  27  14  28  14  29  13  30  13  31  13  32  13
M  ISO  8  33  13  34  13  35  13  36  13  37  13  38  13  39  14  40  14
M  ISO  4  41  14  42  14  43  14  44  14
M  END
>  <minimizedAffinity>  (1) 
-6.37467241

>  <minimizedRMSD>  (1) 
0.418873549

$$$$
