
     RDKit          3D

 37 40  0  0  0  0  0  0  0  0999 V2000
   45.5930   33.1440   46.5500 C   0  0  0  0  0  0  0  0  0  0  0  0
   44.4640   36.1510   44.6700 C   0  0  0  0  0  0  0  0  0  0  0  0
   45.1790   35.9990   43.4630 C   0  0  0  0  0  0  0  0  0  0  0  0
   46.0150   34.8890   43.3260 C   0  0  0  0  0  0  0  0  0  0  0  0
   46.1330   33.9760   44.3440 N   0  0  0  0  0  0  0  0  0  0  0  0
   45.4120   34.1730   45.5040 C   0  0  0  0  0  0  0  0  0  0  0  0
   44.6090   35.2440   45.6280 N   0  0  0  0  0  0  0  0  0  0  0  0
   46.7590   34.7200   42.0840 C   0  0  0  0  0  0  0  0  0  0  0  0
   47.9960   35.3090   41.9310 C   0  0  0  0  0  0  0  0  0  0  0  0
   48.5830   35.0620   40.7060 C   0  0  0  0  0  0  0  0  0  0  0  0
   48.0230   34.3120   39.7170 N   0  0  0  0  0  0  0  0  0  0  0  0
   46.7960   33.7620   39.9440 C   0  0  0  0  0  0  0  0  0  0  0  0
   46.1870   33.9750   41.1220 N   0  0  0  0  0  0  0  0  0  0  0  0
   46.7550   31.9220   45.9130 S   0  0  0  0  0  0  0  0  0  0  0  0
   47.7180   31.2080   47.2260 C   0  0  0  0  0  0  0  0  0  0  0  0
   47.9920   32.0030   48.3140 C   0  0  0  0  0  0  0  0  0  0  0  0
   48.7320   31.4660   49.3390 C   0  0  0  0  0  0  0  0  0  0  0  0
   49.2060   30.1670   49.3120 C   0  0  0  0  0  0  0  0  0  0  0  0
   49.9250   29.6630   50.3260 N   0  0  0  0  0  0  0  0  0  0  0  0
   50.3900   28.4030   50.3130 C   0  0  0  0  0  0  0  0  0  0  0  0
   50.1190   27.6040   49.2250 C   0  0  0  0  0  0  0  0  0  0  0  0
   49.3750   28.1030   48.1630 C   0  0  0  0  0  0  0  0  0  0  0  0
   48.8920   29.4190   48.1830 C   0  0  0  0  0  0  0  0  0  0  0  0
   48.1530   29.9130   47.1270 C   0  0  0  0  0  0  0  0  0  0  0  0
   45.9959   33.6045   47.4641 H   0  0  0  0  0  0  0  0  0  0  0  0
   44.6314   32.6713   46.7988 H   0  0  0  0  0  0  0  0  0  0  0  0
   43.7941   37.0113   44.8152 H   0  0  0  0  0  0  0  0  0  0  0  0
   45.0804   36.7353   42.6517 H   0  0  0  0  0  0  0  0  0  0  0  0
   48.4715   35.9195   42.7128 H   0  0  0  0  0  0  0  0  0  0  0  0
   49.5729   35.5021   40.5155 H   0  0  0  0  0  0  0  0  0  0  0  0
   46.3098   33.1500   39.1700 H   0  0  0  0  0  0  0  0  0  0  0  0
   47.6287   33.0401   48.3621 H   0  0  0  0  0  0  0  0  0  0  0  0
   48.9562   32.0929   50.2146 H   0  0  0  0  0  0  0  0  0  0  0  0
   50.9780   28.0156   51.1581 H   0  0  0  0  0  0  0  0  0  0  0  0
   50.4919   26.5695   49.1965 H   0  0  0  0  0  0  0  0  0  0  0  0
   49.1626   27.4586   47.2972 H   0  0  0  0  0  0  0  0  0  0  0  0
   47.9239   29.2950   46.2463 H   0  0  0  0  0  0  0  0  0  0  0  0
  2  7  2  0
  3  2  1  0
  4  3  2  0
  4  5  1  0
  5  6  2  0
  6  7  1  0
  6  1  1  0
  8  4  1  0
  9  8  2  0
 10  9  1  0
 11 12  1  0
 11 10  2  0
 12 13  2  0
 13  8  1  0
 14  1  1  0
 14 15  1  0
 15 16  2  0
 16 17  1  0
 18 17  2  0
 18 19  1  0
 20 19  2  0
 21 20  1  0
 22 23  1  0
 22 21  2  0
 23 18  1  0
 24 15  1  0
 24 23  2  0
  1 25  1  0
  1 26  1  0
  2 27  1  0
  3 28  1  0
  9 29  1  0
 10 30  1  0
 12 31  1  0
 16 32  1  0
 17 33  1  0
 20 34  1  0
 21 35  1  0
 22 36  1  0
 24 37  1  0
M  ISO  8  25   8  26   8  27  14  28  14  29  14  30  14  31  14  32  14
M  ISO  5  33  14  34  14  35  14  36  14  37  14
M  END
>  <minimizedAffinity>  (1) 
-6.24604845

>  <minimizedRMSD>  (1) 
0.315499216

$$$$
