
     RDKit          3D

 36 39  0  0  0  0  0  0  0  0999 V2000
   47.5080   31.1490   47.1640 C   0  0  0  0  0  0  0  0  0  0  0  0
   47.7990   31.9860   48.2160 C   0  0  0  0  0  0  0  0  0  0  0  0
   48.5960   31.4860   49.2140 C   0  0  0  0  0  0  0  0  0  0  0  0
   49.1080   30.1860   49.1980 C   0  0  0  0  0  0  0  0  0  0  0  0
   49.8790   29.7710   50.2140 N   0  0  0  0  0  0  0  0  0  0  0  0
   50.3860   28.5270   50.2310 C   0  0  0  0  0  0  0  0  0  0  0  0
   50.0980   27.6850   49.1800 C   0  0  0  0  0  0  0  0  0  0  0  0
   49.2990   28.1190   48.1270 C   0  0  0  0  0  0  0  0  0  0  0  0
   48.7720   29.4070   48.1100 C   0  0  0  0  0  0  0  0  0  0  0  0
   47.9780   29.8610   47.0840 C   0  0  0  0  0  0  0  0  0  0  0  0
   46.4750   31.7830   45.8660 S   0  0  0  0  0  0  0  0  0  0  0  0
   45.6300   33.2880   46.3990 C   0  0  0  0  0  0  0  0  0  0  0  0
   44.6750   36.0050   44.0450 C   0  0  0  0  0  0  0  0  0  0  0  0
   45.5880   35.7930   43.0170 C   0  0  0  0  0  0  0  0  0  0  0  0
   46.5120   34.7460   43.1220 C   0  0  0  0  0  0  0  0  0  0  0  0
   46.4900   33.9530   44.2440 N   0  0  0  0  0  0  0  0  0  0  0  0
   45.5800   34.1980   45.2220 C   0  0  0  0  0  0  0  0  0  0  0  0
   44.6980   35.2030   45.1150 N   0  0  0  0  0  0  0  0  0  0  0  0
   47.5380   34.4120   42.0990 C   0  0  0  0  0  0  0  0  0  0  0  0
   48.5230   35.4920   41.6960 C   0  0  0  0  0  0  0  0  0  0  0  0
   48.9670   34.3210   42.5180 C   0  0  0  0  0  0  0  0  0  0  0  0
   47.4087   33.0137   48.2553 H   0  0  0  0  0  0  0  0  0  0  0  0
   48.8432   32.1376   50.0651 H   0  0  0  0  0  0  0  0  0  0  0  0
   51.0172   28.1885   51.0659 H   0  0  0  0  0  0  0  0  0  0  0  0
   50.5025   26.6621   49.1730 H   0  0  0  0  0  0  0  0  0  0  0  0
   49.0804   27.4335   47.2950 H   0  0  0  0  0  0  0  0  0  0  0  0
   47.7279   29.2156   46.2291 H   0  0  0  0  0  0  0  0  0  0  0  0
   44.6104   33.0498   46.7361 H   0  0  0  0  0  0  0  0  0  0  0  0
   46.1609   33.7604   47.2386 H   0  0  0  0  0  0  0  0  0  0  0  0
   43.9425   36.8229   43.9785 H   0  0  0  0  0  0  0  0  0  0  0  0
   45.5841   36.4423   42.1291 H   0  0  0  0  0  0  0  0  0  0  0  0
   46.8422   33.7476   41.5657 H   0  0  0  0  0  0  0  0  0  0  0  0
   48.8433   35.5835   40.6476 H   0  0  0  0  0  0  0  0  0  0  0  0
   48.5711   36.5857   41.8034 H   0  0  0  0  0  0  0  0  0  0  0  0
   49.2379   34.4650   43.5743 H   0  0  0  0  0  0  0  0  0  0  0  0
   49.7547   33.5601   42.4158 H   0  0  0  0  0  0  0  0  0  0  0  0
  1  2  2  0
  2  3  1  0
  4  3  2  0
  4  5  1  0
  5  6  2  0
  7  6  1  0
  8  7  2  0
  9  8  1  0
  9  4  1  0
 10  1  1  0
 10  9  2  0
 11 12  1  0
 11  1  1  0
 13 18  2  0
 14 15  2  0
 14 13  1  0
 15 16  1  0
 16 17  2  0
 17 12  1  0
 18 17  1  0
 19 21  1  0
 19 15  1  0
 20 19  1  0
 20 21  1  0
  2 22  1  0
  3 23  1  0
  6 24  1  0
  7 25  1  0
  8 26  1  0
 10 27  1  0
 12 28  1  0
 12 29  1  0
 13 30  1  0
 14 31  1  0
 19 32  1  0
 20 33  1  0
 20 34  1  0
 21 35  1  0
 21 36  1  0
M  ISO  8  22  14  23  14  24  14  25  14  26  14  27  14  28   8  29   8
M  ISO  7  30  14  31  14  32  13  33  13  34  13  35  13  36  13
M  END
>  <minimizedAffinity>  (1) 
-5.74751616

>  <minimizedRMSD>  (1) 
0.575448513

$$$$
