
     RDKit          3D

 37 41  0  0  0  0  0  0  0  0999 V2000
   44.5900   33.3900   41.2180 Cl  0  0  0  0  0  0  0  0  0  0  0  0
   46.1720   34.0670   41.0400 C   0  0  0  0  0  0  0  0  0  0  0  0
   46.7650   34.7110   42.0960 C   0  0  0  0  0  0  0  0  0  0  0  0
   48.0400   35.2720   41.9990 C   0  0  0  0  0  0  0  0  0  0  0  0
   48.6610   35.1360   40.7760 C   0  0  0  0  0  0  0  0  0  0  0  0
   48.0760   34.5010   39.7330 C   0  0  0  0  0  0  0  0  0  0  0  0
   46.8220   33.9540   39.8460 C   0  0  0  0  0  0  0  0  0  0  0  0
   46.3210   33.2980   38.6310 C   0  0  0  0  0  0  0  0  0  0  0  0
   47.1570   33.2250   37.5210 C   0  0  0  0  0  0  0  0  0  0  0  0
   46.1260   32.3360   36.2590 S   0  0  0  0  0  0  0  0  0  0  0  0
   44.7100   32.2250   37.5140 C   0  0  0  0  0  0  0  0  0  0  0  0
   45.1690   32.7400   38.3940 N   0  0  0  0  0  0  0  0  0  0  0  0
   43.3500   31.6330   37.4100 N   0  0  0  0  0  0  0  0  0  0  0  0
   42.9790   30.4670   36.8750 C   0  0  0  0  0  0  0  0  0  0  0  0
   41.6510   30.3830   37.0230 N   0  0  0  0  0  0  0  0  0  0  0  0
   41.2430   31.5130   37.6520 C   0  0  0  0  0  0  0  0  0  0  0  0
   39.9710   31.9420   38.0500 C   0  0  0  0  0  0  0  0  0  0  0  0
   39.7930   33.1370   38.6780 N   0  0  0  0  0  0  0  0  0  0  0  0
   40.8790   33.9150   38.9150 C   0  0  0  0  0  0  0  0  0  0  0  0
   42.1190   33.5030   38.5300 N   0  0  0  0  0  0  0  0  0  0  0  0
   42.3210   32.3320   37.9110 C   0  0  0  0  0  0  0  0  0  0  0  0
   45.5500   33.9910   45.5040 C   0  0  0  0  0  0  0  0  0  0  0  0
   44.6870   35.0490   45.7430 C   0  0  0  0  0  0  0  0  0  0  0  0
   44.5160   36.0000   44.7600 C   0  0  0  0  0  0  0  0  0  0  0  0
   45.2030   35.8570   43.5990 N   0  0  0  0  0  0  0  0  0  0  0  0
   46.0450   34.8190   43.3740 C   0  0  0  0  0  0  0  0  0  0  0  0
   46.2080   33.9000   44.3290 N   0  0  0  0  0  0  0  0  0  0  0  0
   48.5180   35.7891   42.8441 H   0  0  0  0  0  0  0  0  0  0  0  0
   49.6678   35.5584   40.6426 H   0  0  0  0  0  0  0  0  0  0  0  0
   48.6154   34.4220   38.7776 H   0  0  0  0  0  0  0  0  0  0  0  0
   48.1844   33.6039   37.4163 H   0  0  0  0  0  0  0  0  0  0  0  0
   43.6363   29.7210   36.4045 H   0  0  0  0  0  0  0  0  0  0  0  0
   39.0990   31.3015   37.8516 H   0  0  0  0  0  0  0  0  0  0  0  0
   40.7574   34.8841   39.4210 H   0  0  0  0  0  0  0  0  0  0  0  0
   45.6994   33.2216   46.2758 H   0  0  0  0  0  0  0  0  0  0  0  0
   44.1488   35.1282   46.6991 H   0  0  0  0  0  0  0  0  0  0  0  0
   43.8393   36.8536   44.9131 H   0  0  0  0  0  0  0  0  0  0  0  0
  2  1  1  0
  2  3  2  0
  3 26  1  0
  4  3  1  0
  5  4  2  0
  6  7  2  0
  6  5  1  0
  7  2  1  0
  8  7  1  0
  9  8  2  0
 10 11  1  0
 10  9  1  0
 11 12  2  0
 12  8  1  0
 13 11  1  0
 13 21  1  0
 14 15  2  0
 14 13  1  0
 15 16  1  0
 16 21  2  0
 16 17  1  0
 17 18  2  0
 18 19  1  0
 20 19  2  0
 21 20  1  0
 22 23  2  0
 24 23  1  0
 25 24  2  0
 26 25  1  0
 26 27  2  0
 27 22  1  0
  4 28  1  0
  5 29  1  0
  6 30  1  0
  9 31  1  0
 14 32  1  0
 17 33  1  0
 19 34  1  0
 22 35  1  0
 23 36  1  0
 24 37  1  0
M  ISO  8  28  14  29  14  30  14  31  14  32  14  33  14  34  14  35  14
M  ISO  2  36  14  37  14
M  END
>  <minimizedAffinity>  (1) 
-6.89411259

>  <minimizedRMSD>  (1) 
2.2712996

$$$$
