
     RDKit          3D

 32 34  0  0  0  0  0  0  0  0999 V2000
   47.5880   31.1280   47.2630 C   0  0  0  0  0  0  0  0  0  0  0  0
   47.9050   31.9660   48.3060 C   0  0  0  0  0  0  0  0  0  0  0  0
   48.7030   31.4700   49.3180 C   0  0  0  0  0  0  0  0  0  0  0  0
   49.1830   30.1640   49.3040 C   0  0  0  0  0  0  0  0  0  0  0  0
   49.9570   29.7140   50.3080 N   0  0  0  0  0  0  0  0  0  0  0  0
   50.4330   28.4590   50.3210 C   0  0  0  0  0  0  0  0  0  0  0  0
   50.1150   27.6200   49.2750 C   0  0  0  0  0  0  0  0  0  0  0  0
   49.3160   28.0740   48.2320 C   0  0  0  0  0  0  0  0  0  0  0  0
   48.8210   29.3800   48.2190 C   0  0  0  0  0  0  0  0  0  0  0  0
   48.0300   29.8340   47.1940 C   0  0  0  0  0  0  0  0  0  0  0  0
   46.5570   31.7970   45.9800 S   0  0  0  0  0  0  0  0  0  0  0  0
   45.5920   33.1920   46.5830 C   0  0  0  0  0  0  0  0  0  0  0  0
   44.5290   36.0750   44.4910 C   0  0  0  0  0  0  0  0  0  0  0  0
   45.3060   35.8580   43.3320 C   0  0  0  0  0  0  0  0  0  0  0  0
   46.1730   34.7420   43.2800 C   0  0  0  0  0  0  0  0  0  0  0  0
   46.2320   33.9020   44.3660 N   0  0  0  0  0  0  0  0  0  0  0  0
   45.4640   34.1550   45.4580 C   0  0  0  0  0  0  0  0  0  0  0  0
   44.6370   35.2220   45.5000 N   0  0  0  0  0  0  0  0  0  0  0  0
   46.9970   34.5000   42.0660 C   0  0  0  0  0  0  0  0  0  0  0  0
   47.5338   33.0011   48.3335 H   0  0  0  0  0  0  0  0  0  0  0  0
   48.9670   32.1267   50.1600 H   0  0  0  0  0  0  0  0  0  0  0  0
   51.0644   28.1072   51.1502 H   0  0  0  0  0  0  0  0  0  0  0  0
   50.4947   26.5876   49.2654 H   0  0  0  0  0  0  0  0  0  0  0  0
   49.0696   27.3937   47.4035 H   0  0  0  0  0  0  0  0  0  0  0  0
   47.7612   29.1831   46.3489 H   0  0  0  0  0  0  0  0  0  0  0  0
   44.5962   32.8515   46.9031 H   0  0  0  0  0  0  0  0  0  0  0  0
   46.0833   33.6631   47.4471 H   0  0  0  0  0  0  0  0  0  0  0  0
   43.8470   36.9356   44.5554 H   0  0  0  0  0  0  0  0  0  0  0  0
   45.2376   36.5493   42.4791 H   0  0  0  0  0  0  0  0  0  0  0  0
   48.0125   34.2018   42.3656 H   0  0  0  0  0  0  0  0  0  0  0  0
   46.5409   33.6979   41.4672 H   0  0  0  0  0  0  0  0  0  0  0  0
   47.0471   35.4214   41.4672 H   0  0  0  0  0  0  0  0  0  0  0  0
  1  2  2  0
  2  3  1  0
  4  3  2  0
  4  5  1  0
  5  6  2  0
  7  6  1  0
  8  7  2  0
  9  8  1  0
  9  4  1  0
 10  1  1  0
 10  9  2  0
 11 12  1  0
 11  1  1  0
 13 18  2  0
 14 13  1  0
 15 14  2  0
 15 16  1  0
 16 17  2  0
 17 18  1  0
 17 12  1  0
 19 15  1  0
  2 20  1  0
  3 21  1  0
  6 22  1  0
  7 23  1  0
  8 24  1  0
 10 25  1  0
 12 26  1  0
 12 27  1  0
 13 28  1  0
 14 29  1  0
 19 30  1  0
 19 31  1  0
 19 32  1  0
M  ISO  8  20  14  21  14  22  14  23  14  24  14  25  14  26   8  27   8
M  ISO  5  28  14  29  14  30   8  31   8  32   8
M  END
>  <minimizedAffinity>  (1) 
-5.23361444

>  <minimizedRMSD>  (1) 
0.111400008

$$$$
