
     RDKit          3D

 31 33  0  0  0  0  0  0  0  0999 V2000
   47.5880   31.1130   47.3080 C   0  0  0  0  0  0  0  0  0  0  0  0
   47.9170   31.9570   48.3430 C   0  0  0  0  0  0  0  0  0  0  0  0
   48.7170   31.4610   49.3300 C   0  0  0  0  0  0  0  0  0  0  0  0
   49.2070   30.1620   49.3370 C   0  0  0  0  0  0  0  0  0  0  0  0
   49.9860   29.7250   50.3370 N   0  0  0  0  0  0  0  0  0  0  0  0
   50.4600   28.4660   50.3540 C   0  0  0  0  0  0  0  0  0  0  0  0
   50.1330   27.6170   49.3180 C   0  0  0  0  0  0  0  0  0  0  0  0
   49.3250   28.0620   48.2750 C   0  0  0  0  0  0  0  0  0  0  0  0
   48.8360   29.3630   48.2630 C   0  0  0  0  0  0  0  0  0  0  0  0
   48.0330   29.8130   47.2410 C   0  0  0  0  0  0  0  0  0  0  0  0
   46.5360   31.7580   46.0220 S   0  0  0  0  0  0  0  0  0  0  0  0
   45.5910   33.1750   46.6200 C   0  0  0  0  0  0  0  0  0  0  0  0
   44.5610   36.0360   44.4760 C   0  0  0  0  0  0  0  0  0  0  0  0
   45.3200   35.7930   43.3310 C   0  0  0  0  0  0  0  0  0  0  0  0
   46.1720   34.6660   43.2930 C   0  0  0  0  0  0  0  0  0  0  0  0
   46.2260   33.8460   44.3850 N   0  0  0  0  0  0  0  0  0  0  0  0
   45.4680   34.1230   45.4790 C   0  0  0  0  0  0  0  0  0  0  0  0
   44.6550   35.1950   45.5190 N   0  0  0  0  0  0  0  0  0  0  0  0
   46.9820   34.3380   42.1720 N   0  0  0  0  0  0  0  0  0  0  0  0
   47.5487   32.9931   48.3736 H   0  0  0  0  0  0  0  0  0  0  0  0
   48.9882   32.1249   50.1641 H   0  0  0  0  0  0  0  0  0  0  0  0
   51.0978   28.1197   51.1806 H   0  0  0  0  0  0  0  0  0  0  0  0
   50.5118   26.5843   49.3154 H   0  0  0  0  0  0  0  0  0  0  0  0
   49.0712   27.3772   47.4524 H   0  0  0  0  0  0  0  0  0  0  0  0
   47.7570   29.1579   46.4015 H   0  0  0  0  0  0  0  0  0  0  0  0
   44.5936   32.8517   46.9528 H   0  0  0  0  0  0  0  0  0  0  0  0
   46.0923   33.6507   47.4758 H   0  0  0  0  0  0  0  0  0  0  0  0
   43.8921   36.9079   44.5242 H   0  0  0  0  0  0  0  0  0  0  0  0
   45.2561   36.4711   42.4672 H   0  0  0  0  0  0  0  0  0  0  0  0
   47.5850   33.5034   42.1989 H   0  0  0  0  0  0  0  0  0  0  0  0
   46.9659   34.9349   41.3327 H   0  0  0  0  0  0  0  0  0  0  0  0
  1  2  2  0
  2  3  1  0
  3  4  2  0
  4  5  1  0
  5  6  2  0
  7  6  1  0
  8  7  2  0
  9  8  1  0
  9  4  1  0
 10  1  1  0
 10  9  2  0
 11 12  1  0
 11  1  1  0
 13 18  2  0
 14 13  1  0
 15 14  2  0
 15 16  1  0
 16 17  2  0
 17 18  1  0
 17 12  1  0
 19 15  1  0
  2 20  1  0
  3 21  1  0
  6 22  1  0
  7 23  1  0
  8 24  1  0
 10 25  1  0
 12 26  1  0
 12 27  1  0
 13 28  1  0
 14 29  1  0
 19 30  1  0
 19 31  1  0
M  ISO  8  20  14  21  14  22  14  23  14  24  14  25  14  26   8  27   8
M  ISO  2  28  14  29  14
M  END
>  <minimizedAffinity>  (1) 
-5.13856268

>  <minimizedRMSD>  (1) 
0.0632449239

$$$$
