
     RDKit          3D

 26 27  0  0  0  0  0  0  0  0999 V2000
   44.5160   35.8340   44.7250 C   0  0  0  0  0  0  0  0  0  0  0  0
   45.2030   35.7350   43.4880 C   0  0  0  0  0  0  0  0  0  0  0  0
   46.1370   34.6850   43.3550 C   0  0  0  0  0  0  0  0  0  0  0  0
   46.3010   33.8580   44.4170 N   0  0  0  0  0  0  0  0  0  0  0  0
   45.6320   33.9840   45.5720 C   0  0  0  0  0  0  0  0  0  0  0  0
   44.7430   34.9680   45.7230 N   0  0  0  0  0  0  0  0  0  0  0  0
   45.8680   33.0670   46.6370 N   0  0  0  0  0  0  0  0  0  0  0  0
   45.0030   32.9270   47.7670 C   0  0  0  0  0  0  0  0  0  0  0  0
   45.1280   31.5500   48.3850 C   0  0  0  0  0  0  0  0  0  0  0  0
   46.5430   31.2230   48.7670 C   0  0  0  0  0  0  0  0  0  0  0  0
   47.5150   32.1690   48.0630 C   0  0  0  0  0  0  0  0  0  0  0  0
   47.0380   32.2100   46.6170 C   0  0  0  0  0  0  0  0  0  0  0  0
   47.0420   34.4910   41.8350 S   0  0  0  0  0  0  0  0  0  0  0  0
   43.7806   36.6393   44.8687 H   0  0  0  0  0  0  0  0  0  0  0  0
   45.0162   36.4449   42.6688 H   0  0  0  0  0  0  0  0  0  0  0  0
   45.2703   33.6836   48.5194 H   0  0  0  0  0  0  0  0  0  0  0  0
   43.9649   33.0648   47.4303 H   0  0  0  0  0  0  0  0  0  0  0  0
   44.4996   31.5087   49.2869 H   0  0  0  0  0  0  0  0  0  0  0  0
   44.8033   30.8138   47.6349 H   0  0  0  0  0  0  0  0  0  0  0  0
   46.6585   31.3286   49.8558 H   0  0  0  0  0  0  0  0  0  0  0  0
   46.7659   30.1897   48.4626 H   0  0  0  0  0  0  0  0  0  0  0  0
   47.4745   33.1719   48.5132 H   0  0  0  0  0  0  0  0  0  0  0  0
   48.5584   31.8309   48.1470 H   0  0  0  0  0  0  0  0  0  0  0  0
   46.7734   31.2011   46.2675 H   0  0  0  0  0  0  0  0  0  0  0  0
   47.8149   32.5839   45.9339 H   0  0  0  0  0  0  0  0  0  0  0  0
   48.3529   34.2100   42.1167 H   0  0  0  0  0  0  0  0  0  0  0  0
  1  6  2  0
  2  1  1  0
  3  2  2  0
  3  4  1  0
  4  5  2  0
  5  6  1  0
  5  7  1  0
  7  8  1  0
  8  9  1  0
  9 10  1  0
 11 10  1  0
 12  7  1  0
 12 11  1  0
 13  3  1  0
  1 14  1  0
  2 15  1  0
  8 16  1  0
  8 17  1  0
  9 18  1  0
  9 19  1  0
 10 20  1  0
 10 21  1  0
 11 22  1  0
 11 23  1  0
 12 24  1  0
 12 25  1  0
 13 26  1  0
M  ISO  8  14  14  15  14  16  13  17  13  18  13  19  13  20  13  21  13
M  ISO  5  22  13  23  13  24  13  25  13  26  11
M  END
>  <minimizedAffinity>  (1) 
-5.10981274

>  <minimizedRMSD>  (1) 
0.289648145

$$$$
