
     RDKit          3D

 21 22  0  0  0  0  0  0  0  0999 V2000
   47.4670   31.5980   44.7030 Cl  0  0  0  0  0  0  0  0  0  0  0  0
   46.7290   31.7570   46.2670 C   0  0  0  0  0  0  0  0  0  0  0  0
   45.8900   32.8230   46.6100 C   0  0  0  0  0  0  0  0  0  0  0  0
   45.2930   32.9690   47.8490 C   0  0  0  0  0  0  0  0  0  0  0  0
   45.5550   31.9830   48.8030 C   0  0  0  0  0  0  0  0  0  0  0  0
   46.3750   30.8980   48.5390 C   0  0  0  0  0  0  0  0  0  0  0  0
   46.9280   30.8350   47.2760 C   0  0  0  0  0  0  0  0  0  0  0  0
   47.9690   29.4330   46.9800 Cl  0  0  0  0  0  0  0  0  0  0  0  0
   44.5180   35.7620   44.8770 C   0  0  0  0  0  0  0  0  0  0  0  0
   45.1910   35.7340   43.6350 C   0  0  0  0  0  0  0  0  0  0  0  0
   46.1070   34.6890   43.4340 C   0  0  0  0  0  0  0  0  0  0  0  0
   46.2960   33.7720   44.4310 N   0  0  0  0  0  0  0  0  0  0  0  0
   45.6240   33.8540   45.5910 C   0  0  0  0  0  0  0  0  0  0  0  0
   44.7420   34.8360   45.8190 N   0  0  0  0  0  0  0  0  0  0  0  0
   46.9970   34.5870   41.8850 S   0  0  0  0  0  0  0  0  0  0  0  0
   44.6397   33.8251   48.0735 H   0  0  0  0  0  0  0  0  0  0  0  0
   45.0945   32.0710   49.7981 H   0  0  0  0  0  0  0  0  0  0  0  0
   46.5751   30.1264   49.2970 H   0  0  0  0  0  0  0  0  0  0  0  0
   43.7920   36.5642   45.0755 H   0  0  0  0  0  0  0  0  0  0  0  0
   45.0061   36.4947   42.8623 H   0  0  0  0  0  0  0  0  0  0  0  0
   48.3350   34.4337   42.1363 H   0  0  0  0  0  0  0  0  0  0  0  0
  1  2  1  0
  2  3  2  0
  2  7  1  0
  3  4  1  0
  4  5  2  0
  6  5  1  0
  7  6  2  0
  8  7  1  0
  9 14  2  0
 10  9  1  0
 11 10  2  0
 11 12  1  0
 12 13  2  0
 13 14  1  0
 13  3  1  0
 15 11  1  0
  4 16  1  0
  5 17  1  0
  6 18  1  0
  9 19  1  0
 10 20  1  0
 15 21  1  0
M  ISO  6  16  14  17  14  18  14  19  14  20  14  21  11
M  END
>  <minimizedAffinity>  (1) 
-5.01421022

>  <minimizedRMSD>  (1) 
0.67299968

$$$$
