
     RDKit          3D

 24 25  0  0  0  0  0  0  0  0999 V2000
   44.5130   35.7440   44.8370 C   0  0  0  0  0  0  0  0  0  0  0  0
   45.1850   35.6670   43.5780 C   0  0  0  0  0  0  0  0  0  0  0  0
   46.1160   34.6280   43.4440 C   0  0  0  0  0  0  0  0  0  0  0  0
   46.3250   33.7790   44.4790 N   0  0  0  0  0  0  0  0  0  0  0  0
   45.6660   33.8960   45.6450 C   0  0  0  0  0  0  0  0  0  0  0  0
   44.7650   34.8670   45.8330 N   0  0  0  0  0  0  0  0  0  0  0  0
   45.9720   32.9420   46.6600 N   0  0  0  0  0  0  0  0  0  0  0  0
   47.1420   32.1240   46.5680 C   0  0  0  0  0  0  0  0  0  0  0  0
   47.6920   31.6640   47.8940 C   0  0  0  0  0  0  0  0  0  0  0  0
   46.7810   31.3960   48.8580 O   0  0  0  0  0  0  0  0  0  0  0  0
   45.6590   32.1320   48.9650 C   0  0  0  0  0  0  0  0  0  0  0  0
   45.0890   32.8050   47.7920 C   0  0  0  0  0  0  0  0  0  0  0  0
   47.0060   34.4570   41.8940 S   0  0  0  0  0  0  0  0  0  0  0  0
   43.7704   36.5391   44.9993 H   0  0  0  0  0  0  0  0  0  0  0  0
   44.9839   36.3793   42.7643 H   0  0  0  0  0  0  0  0  0  0  0  0
   46.8920   31.2334   45.9727 H   0  0  0  0  0  0  0  0  0  0  0  0
   47.9222   32.7468   46.1060 H   0  0  0  0  0  0  0  0  0  0  0  0
   48.2726   30.7467   47.7165 H   0  0  0  0  0  0  0  0  0  0  0  0
   48.2848   32.5083   48.2757 H   0  0  0  0  0  0  0  0  0  0  0  0
   44.8785   31.4603   49.3518 H   0  0  0  0  0  0  0  0  0  0  0  0
   45.9771   32.9727   49.5991 H   0  0  0  0  0  0  0  0  0  0  0  0
   44.7752   33.8133   48.1000 H   0  0  0  0  0  0  0  0  0  0  0  0
   44.2615   32.1653   47.4515 H   0  0  0  0  0  0  0  0  0  0  0  0
   48.3274   34.2031   42.1517 H   0  0  0  0  0  0  0  0  0  0  0  0
  1  6  2  0
  2  1  1  0
  3  2  2  0
  3  4  1  0
  4  5  2  0
  5  6  1  0
  5  7  1  0
  7 12  1  0
  8  7  1  0
  8  9  1  0
  9 10  1  0
 10 11  1  0
 12 11  1  0
 13  3  1  0
  1 14  1  0
  2 15  1  0
  8 16  1  0
  8 17  1  0
  9 18  1  0
  9 19  1  0
 11 20  1  0
 11 21  1  0
 12 22  1  0
 12 23  1  0
 13 24  1  0
M  ISO  8  14  14  15  14  16  13  17  13  18  13  19  13  20  13  21  13
M  ISO  3  22  13  23  13  24  11
M  END
>  <minimizedAffinity>  (1) 
-4.78555918

>  <minimizedRMSD>  (1) 
0.405100375

$$$$
