
     RDKit          3D

 23 24  0  0  1  0  0  0  0  0999 V2000
   44.4980   35.5060   44.8650 C   0  0  0  0  0  0  0  0  0  0  0  0
   45.0140   35.4750   43.5510 C   0  0  0  0  0  0  0  0  0  0  0  0
   46.0620   34.5760   43.3010 C   0  0  0  0  0  0  0  0  0  0  0  0
   46.5090   33.8030   44.3200 N   0  0  0  0  0  0  0  0  0  0  0  0
   45.9900   33.8630   45.5610 C   0  0  0  0  0  0  0  0  0  0  0  0
   44.9830   34.7160   45.8290 N   0  0  0  0  0  0  0  0  0  0  0  0
   45.4110   32.5760   47.5340 C   0  0  1  0  0  0  0  0  0  0  0  0
   46.5670   32.9590   46.6040 C   0  0  1  0  0  0  0  0  0  0  0  0
   46.9900   31.6370   46.0440 C   0  0  0  0  0  0  0  0  0  0  0  0
   46.6820   30.7360   47.0700 O   0  0  0  0  0  0  0  0  0  0  0  0
   45.3630   31.0920   47.3810 C   0  0  0  0  0  0  0  0  0  0  0  0
   45.7000   32.9490   48.8570 O   0  0  0  0  0  0  0  0  0  0  0  0
   46.7660   34.4820   41.6650 S   0  0  0  0  0  0  0  0  0  0  0  0
   43.6761   36.1976   45.1018 H   0  0  0  0  0  0  0  0  0  0  0  0
   44.6129   36.1256   42.7599 H   0  0  0  0  0  0  0  0  0  0  0  0
   44.4568   33.0682   47.2950 H   0  0  0  0  0  0  0  0  0  0  0  0
   47.4172   33.4834   47.0645 H   0  0  0  0  0  0  0  0  0  0  0  0
   46.4274   31.3990   45.1292 H   0  0  0  0  0  0  0  0  0  0  0  0
   48.0513   31.6127   45.7557 H   0  0  0  0  0  0  0  0  0  0  0  0
   44.6795   30.8055   46.5681 H   0  0  0  0  0  0  0  0  0  0  0  0
   44.9921   30.5869   48.2850 H   0  0  0  0  0  0  0  0  0  0  0  0
   45.2294   32.3417   49.4814 H   0  0  0  0  0  0  0  0  0  0  0  0
   48.1206   34.3011   41.7605 H   0  0  0  0  0  0  0  0  0  0  0  0
  1  6  2  0
  2  1  1  0
  3  2  2  0
  3  4  1  0
  4  5  2  0
  5  6  1  0
  7 12  1  0
  8  5  1  0
  8  7  1  0
  9  8  1  0
  9 10  1  0
 10 11  1  0
 11  7  1  0
 13  3  1  0
  1 14  1  0
  2 15  1  0
  7 16  1  6
  8 17  1  1
  9 18  1  0
  9 19  1  0
 11 20  1  0
 11 21  1  0
 12 22  1  0
 13 23  1  0
M  ISO  8  14  14  15  14  16  13  17  13  18  13  19  13  20  13  21  13
M  ISO  2  22   3  23  11
M  END
>  <minimizedAffinity>  (1) 
-4.59733963

>  <minimizedRMSD>  (1) 
0.876140833

$$$$
