
     RDKit          3D

 31 33  0  0  1  0  0  0  0  0999 V2000
   46.4440   31.5650   45.4020 C   0  0  0  0  0  0  0  0  0  0  0  0
   47.2190   31.2030   46.3840 C   0  0  0  0  0  0  0  0  0  0  0  0
   47.9230   29.9800   46.3750 N   0  0  0  0  0  0  0  0  0  0  0  0
   48.4700   28.8640   47.0480 C   0  0  0  0  0  0  0  0  0  0  0  0
   48.6640   28.4910   48.2550 O   0  0  0  0  0  0  0  0  0  0  0  0
   48.8090   28.1330   45.8240 C   0  0  0  0  0  0  0  0  0  0  0  0
   48.4220   29.4000   45.1440 C   0  0  1  0  0  0  0  0  0  0  0  0
   46.9440   29.2010   44.0770 S   0  0  0  0  0  0  0  0  0  0  0  0
   46.1720   30.8100   44.1740 C   0  0  0  0  0  0  0  0  0  0  0  0
   47.4250   32.0290   47.5670 C   0  0  0  0  0  0  0  0  0  0  0  0
   47.2880   31.6720   48.7640 O   0  0  0  0  0  0  0  0  0  0  0  0
   47.7640   33.2580   48.0980 O   0  0  0  0  0  0  0  0  0  0  0  0
   45.7110   32.8400   45.4050 C   0  0  0  0  0  0  0  0  0  0  0  0
   45.5790   35.0800   42.3980 C   0  0  0  0  0  0  0  0  0  0  0  0
   46.9690   35.1590   42.0860 C   0  0  0  0  0  0  0  0  0  0  0  0
   47.8620   34.4540   42.9080 C   0  0  0  0  0  0  0  0  0  0  0  0
   47.3580   33.7440   43.9400 N   0  0  0  0  0  0  0  0  0  0  0  0
   46.0290   33.6910   44.2080 C   0  0  0  0  0  0  0  0  0  0  0  0
   45.1560   34.3540   43.4400 N   0  0  0  0  0  0  0  0  0  0  0  0
   49.6070   34.5190   42.5630 S   0  0  0  0  0  0  0  0  0  0  0  0
   49.8664   27.8473   45.7228 H   0  0  0  0  0  0  0  0  0  0  0  0
   48.3856   27.1511   45.5658 H   0  0  0  0  0  0  0  0  0  0  0  0
   49.1892   29.8818   44.5201 H   0  0  0  0  0  0  0  0  0  0  0  0
   46.5266   31.4086   43.3220 H   0  0  0  0  0  0  0  0  0  0  0  0
   45.0874   30.6270   44.1645 H   0  0  0  0  0  0  0  0  0  0  0  0
   47.7751   33.3871   49.0795 H   0  0  0  0  0  0  0  0  0  0  0  0
   44.6320   32.6263   45.4089 H   0  0  0  0  0  0  0  0  0  0  0  0
   46.0167   33.3984   46.3021 H   0  0  0  0  0  0  0  0  0  0  0  0
   44.8490   35.6201   41.7772 H   0  0  0  0  0  0  0  0  0  0  0  0
   47.3281   35.7514   41.2315 H   0  0  0  0  0  0  0  0  0  0  0  0
   50.3049   34.5450   43.7416 H   0  0  0  0  0  0  0  0  0  0  0  0
  1 13  1  0
  1  2  2  0
  2 10  1  0
  3  2  1  0
  3  4  1  0
  4  5  2  0
  6  4  1  0
  7  8  1  0
  7  6  1  0
  7  3  1  0
  8  9  1  0
  9  1  1  0
 10 12  1  0
 10 11  2  0
 14 19  2  0
 15 14  1  0
 15 16  2  0
 16 17  1  0
 17 18  2  0
 18 13  1  0
 19 18  1  0
 20 16  1  0
  6 21  1  0
  6 22  1  0
  7 23  1  6
  9 24  1  0
  9 25  1  0
 12 26  1  0
 13 27  1  0
 13 28  1  0
 14 29  1  0
 15 30  1  0
 20 31  1  0
M  ISO  8  21  13  22  13  23  13  24  13  25  13  26   3  27   8  28   8
M  ISO  3  29  14  30  14  31  11
M  END
>  <minimizedAffinity>  (1) 
-4.36501551

>  <minimizedRMSD>  (1) 
1.60331273

$$$$
