
     RDKit          3D

 17 17  0  0  0  0  0  0  0  0999 V2000
   44.5360   35.7090   44.8120 C   0  0  0  0  0  0  0  0  0  0  0  0
   45.2080   35.6930   43.5600 C   0  0  0  0  0  0  0  0  0  0  0  0
   46.1830   34.6940   43.3690 C   0  0  0  0  0  0  0  0  0  0  0  0
   46.4270   33.8120   44.3700 N   0  0  0  0  0  0  0  0  0  0  0  0
   45.7530   33.8730   45.5510 C   0  0  0  0  0  0  0  0  0  0  0  0
   44.8230   34.8070   45.7670 N   0  0  0  0  0  0  0  0  0  0  0  0
   47.0680   34.6100   41.8240 S   0  0  0  0  0  0  0  0  0  0  0  0
   46.1720   32.8160   46.5130 C   0  0  0  0  0  0  0  0  0  0  0  0
   45.2710   32.7330   47.7210 C   0  0  0  0  0  0  0  0  0  0  0  0
   43.7676   36.4726   45.0032 H   0  0  0  0  0  0  0  0  0  0  0  0
   44.9772   36.4280   42.7748 H   0  0  0  0  0  0  0  0  0  0  0  0
   48.4093   34.4827   42.0724 H   0  0  0  0  0  0  0  0  0  0  0  0
   46.1573   31.8450   45.9964 H   0  0  0  0  0  0  0  0  0  0  0  0
   47.1802   33.0739   46.8694 H   0  0  0  0  0  0  0  0  0  0  0  0
   45.8787   32.7890   48.6362 H   0  0  0  0  0  0  0  0  0  0  0  0
   44.5564   33.5691   47.7036 H   0  0  0  0  0  0  0  0  0  0  0  0
   44.7212   31.7804   47.7036 H   0  0  0  0  0  0  0  0  0  0  0  0
  1  6  2  0
  2  1  1  0
  3  2  2  0
  3  4  1  0
  4  5  2  0
  5  6  1  0
  5  8  1  0
  7  3  1  0
  8  9  1  0
  1 10  1  0
  2 11  1  0
  7 12  1  0
  8 13  1  0
  8 14  1  0
  9 15  1  0
  9 16  1  0
  9 17  1  0
M  ISO  8  10  14  11  14  12  11  13   8  14   8  15   8  16   8  17   8
M  END
>  <minimizedAffinity>  (1) 
-3.50892949

>  <minimizedRMSD>  (1) 
0.495750755

$$$$
