
     RDKit          3D

 41 44  0  0  0  0  0  0  0  0999 V2000
   44.7430   33.1540   41.1710 Cl  0  0  0  0  0  0  0  0  0  0  0  0
   46.2570   33.9430   40.9360 C   0  0  0  0  0  0  0  0  0  0  0  0
   46.7990   34.7150   41.9400 C   0  0  0  0  0  0  0  0  0  0  0  0
   48.0290   35.3800   41.8040 C   0  0  0  0  0  0  0  0  0  0  0  0
   48.6610   35.2090   40.5940 C   0  0  0  0  0  0  0  0  0  0  0  0
   48.1350   34.4490   39.5980 C   0  0  0  0  0  0  0  0  0  0  0  0
   46.9310   33.8060   39.7490 C   0  0  0  0  0  0  0  0  0  0  0  0
   46.4920   33.0270   38.5930 C   0  0  0  0  0  0  0  0  0  0  0  0
   47.4380   32.6210   37.6590 C   0  0  0  0  0  0  0  0  0  0  0  0
   46.4360   31.6880   36.4090 S   0  0  0  0  0  0  0  0  0  0  0  0
   44.8700   32.0320   37.4170 C   0  0  0  0  0  0  0  0  0  0  0  0
   45.3020   32.6180   38.2580 N   0  0  0  0  0  0  0  0  0  0  0  0
   43.5230   31.5850   37.0650 N   0  0  0  0  0  0  0  0  0  0  0  0
   43.2730   30.8130   35.8720 C   0  0  0  0  0  0  0  0  0  0  0  0
   42.3380   29.6640   36.1040 C   0  0  0  0  0  0  0  0  0  0  0  0
   42.0230   29.5920   37.5740 C   0  0  0  0  0  0  0  0  0  0  0  0
   41.3730   30.9390   37.9210 C   0  0  0  0  0  0  0  0  0  0  0  0
   42.4630   31.9590   37.9730 C   0  0  0  0  0  0  0  0  0  0  0  0
   45.5670   34.0580   45.3620 C   0  0  0  0  0  0  0  0  0  0  0  0
   44.7000   35.1180   45.5800 C   0  0  0  0  0  0  0  0  0  0  0  0
   44.5370   36.0510   44.5670 C   0  0  0  0  0  0  0  0  0  0  0  0
   45.2230   35.9030   43.3980 N   0  0  0  0  0  0  0  0  0  0  0  0
   46.0690   34.8540   43.2070 C   0  0  0  0  0  0  0  0  0  0  0  0
   46.2250   33.9480   44.1960 N   0  0  0  0  0  0  0  0  0  0  0  0
   48.4572   35.9949   42.6093 H   0  0  0  0  0  0  0  0  0  0  0  0
   49.6280   35.7060   40.4267 H   0  0  0  0  0  0  0  0  0  0  0  0
   48.6851   34.3467   38.6509 H   0  0  0  0  0  0  0  0  0  0  0  0
   48.5219   32.8085   37.6610 H   0  0  0  0  0  0  0  0  0  0  0  0
   44.2308   30.4169   35.5035 H   0  0  0  0  0  0  0  0  0  0  0  0
   42.7972   31.4823   35.1402 H   0  0  0  0  0  0  0  0  0  0  0  0
   41.4106   29.8196   35.5333 H   0  0  0  0  0  0  0  0  0  0  0  0
   42.8061   28.7252   35.7731 H   0  0  0  0  0  0  0  0  0  0  0  0
   41.3266   28.7653   37.7778 H   0  0  0  0  0  0  0  0  0  0  0  0
   42.9250   29.4072   38.1759 H   0  0  0  0  0  0  0  0  0  0  0  0
   40.6385   31.2123   37.1491 H   0  0  0  0  0  0  0  0  0  0  0  0
   40.8484   30.8807   38.8861 H   0  0  0  0  0  0  0  0  0  0  0  0
   42.8616   32.0165   38.9966 H   0  0  0  0  0  0  0  0  0  0  0  0
   42.0595   32.9390   37.6784 H   0  0  0  0  0  0  0  0  0  0  0  0
   45.7168   33.3032   46.1480 H   0  0  0  0  0  0  0  0  0  0  0  0
   44.1560   35.2162   46.5310 H   0  0  0  0  0  0  0  0  0  0  0  0
   43.8583   36.9054   44.7058 H   0  0  0  0  0  0  0  0  0  0  0  0
  2  1  1  0
  2  3  2  0
  3 23  1  0
  4  3  1  0
  5  4  2  0
  6  7  2  0
  6  5  1  0
  7  2  1  0
  8  7  1  0
  9  8  2  0
 10 11  1  0
 10  9  1  0
 11 12  2  0
 12  8  1  0
 13 11  1  0
 13 18  1  0
 14 15  1  0
 14 13  1  0
 15 16  1  0
 16 17  1  0
 17 18  1  0
 19 20  2  0
 21 20  1  0
 22 21  2  0
 23 22  1  0
 23 24  2  0
 24 19  1  0
  4 25  1  0
  5 26  1  0
  6 27  1  0
  9 28  1  0
 14 29  1  0
 14 30  1  0
 15 31  1  0
 15 32  1  0
 16 33  1  0
 16 34  1  0
 17 35  1  0
 17 36  1  0
 18 37  1  0
 18 38  1  0
 19 39  1  0
 20 40  1  0
 21 41  1  0
M  ISO  8  25  14  26  14  27  14  28  14  29  13  30  13  31  13  32  13
M  ISO  8  33  13  34  13  35  13  36  13  37  13  38  13  39  14  40  14
M  ISO  1  41  14
M  END
>  <minimizedAffinity>  (1) 
-6.18237209

>  <minimizedRMSD>  (1) 
1.77415073

$$$$
