
     RDKit          3D

 30 31  0  0  1  0  0  0  0  0999 V2000
   47.7880   35.0800   41.4440 C   0  0  1  0  0  0  0  0  0  0  0  0
   48.0560   33.9650   40.5110 C   0  0  0  0  0  0  0  0  0  0  0  0
   49.2450   33.0910   40.8660 C   0  0  0  0  0  0  0  0  0  0  0  0
   49.0350   31.8350   40.0180 C   0  0  0  0  0  0  0  0  0  0  0  0
   49.1990   32.1660   38.7130 O   0  0  0  0  0  0  0  0  0  0  0  0
   48.3660   33.1160   38.1790 C   0  0  0  0  0  0  0  0  0  0  0  0
   48.1190   34.3030   39.0570 C   0  0  0  0  0  0  0  0  0  0  0  0
   45.7700   35.5210   42.7700 C   0  0  0  0  0  0  0  0  0  0  0  0
   46.9600   34.8080   42.6150 C   0  0  0  0  0  0  0  0  0  0  0  0
   47.3120   33.8790   43.5970 C   0  0  0  0  0  0  0  0  0  0  0  0
   46.4750   33.7200   44.6530 N   0  0  0  0  0  0  0  0  0  0  0  0
   45.3240   34.4280   44.7770 C   0  0  0  0  0  0  0  0  0  0  0  0
   44.9590   35.3380   43.8350 N   0  0  0  0  0  0  0  0  0  0  0  0
   49.0880   35.6910   41.9230 C   0  0  0  0  0  0  0  0  0  0  0  0
   47.1875   35.7624   40.8246 H   0  0  0  0  0  0  0  0  0  0  0  0
   47.1337   33.3858   40.6658 H   0  0  0  0  0  0  0  0  0  0  0  0
   50.1903   33.5885   40.6034 H   0  0  0  0  0  0  0  0  0  0  0  0
   49.3093   32.8738   41.9424 H   0  0  0  0  0  0  0  0  0  0  0  0
   49.7707   31.0681   40.3018 H   0  0  0  0  0  0  0  0  0  0  0  0
   48.0239   31.4338   40.1815 H   0  0  0  0  0  0  0  0  0  0  0  0
   48.8129   33.4731   37.2394 H   0  0  0  0  0  0  0  0  0  0  0  0
   47.3904   32.6274   38.0391 H   0  0  0  0  0  0  0  0  0  0  0  0
   48.9334   35.0261   38.9024 H   0  0  0  0  0  0  0  0  0  0  0  0
   47.1379   34.7143   38.7772 H   0  0  0  0  0  0  0  0  0  0  0  0
   45.4838   36.2542   42.0016 H   0  0  0  0  0  0  0  0  0  0  0  0
   48.2400   33.2939   43.5166 H   0  0  0  0  0  0  0  0  0  0  0  0
   44.6774   34.2635   45.6516 H   0  0  0  0  0  0  0  0  0  0  0  0
   49.1059   35.6994   43.0228 H   0  0  0  0  0  0  0  0  0  0  0  0
   49.9333   35.0959   41.5471 H   0  0  0  0  0  0  0  0  0  0  0  0
   49.1692   36.7216   41.5471 H   0  0  0  0  0  0  0  0  0  0  0  0
  1 14  1  0
  1  9  1  0
  2  3  1  0
  2  1  1  0
  4  3  1  0
  5  4  1  0
  6  5  1  0
  6  7  1  0
  7  2  1  0
  8 13  2  0
  9  8  1  0
  9 10  2  0
 10 11  1  0
 11 12  2  0
 13 12  1  0
  1 15  1  6
  2 16  1  0
  3 17  1  0
  3 18  1  0
  4 19  1  0
  4 20  1  0
  6 21  1  0
  6 22  1  0
  7 23  1  0
  7 24  1  0
  8 25  1  0
 10 26  1  0
 12 27  1  0
 14 28  1  0
 14 29  1  0
 14 30  1  0
M  ISO  8  15   8  16  13  17  13  18  13  19  13  20  13  21  13  22  13
M  ISO  8  23  13  24  13  25  14  26  14  27  14  28   8  29   8  30   8
M  END
>  <minimizedAffinity>  (1) 
-4.35170603

>  <minimizedRMSD>  (1) 
2.00760365

$$$$
