
     RDKit          3D

 22 22  0  0  1  0  0  0  0  0999 V2000
   47.9140   34.9930   41.3170 C   0  0  1  0  0  0  0  0  0  0  0  0
   45.9140   35.3540   42.7360 C   0  0  0  0  0  0  0  0  0  0  0  0
   47.1310   34.7150   42.4820 C   0  0  0  0  0  0  0  0  0  0  0  0
   47.5480   33.7740   43.4230 C   0  0  0  0  0  0  0  0  0  0  0  0
   46.7620   33.5210   44.5280 N   0  0  0  0  0  0  0  0  0  0  0  0
   45.5890   34.1750   44.7170 C   0  0  0  0  0  0  0  0  0  0  0  0
   45.1610   35.1010   43.8120 N   0  0  0  0  0  0  0  0  0  0  0  0
   49.1180   35.8690   41.7320 C   0  0  0  0  0  0  0  0  0  0  0  0
   48.4260   33.7670   40.8430 O   0  0  0  0  0  0  0  0  0  0  0  0
   48.3900   32.3040   38.6590 O   0  0  0  0  0  0  0  0  0  0  0  0
   47.9990   33.6580   39.2060 P   0  0  0  0  0  0  0  0  0  0  0  0
   46.3290   33.8760   39.1000 O   0  0  0  0  0  0  0  0  0  0  0  0
   48.7550   34.8700   38.2980 O   0  0  0  0  0  0  0  0  0  0  0  0
   47.3060   35.5007   40.5537 H   0  0  0  0  0  0  0  0  0  0  0  0
   45.5573   36.1033   42.0140 H   0  0  0  0  0  0  0  0  0  0  0  0
   48.4979   33.2368   43.2849 H   0  0  0  0  0  0  0  0  0  0  0  0
   44.9789   33.9571   45.6060 H   0  0  0  0  0  0  0  0  0  0  0  0
   49.1784   35.9130   42.8295 H   0  0  0  0  0  0  0  0  0  0  0  0
   50.0446   35.4325   41.3309 H   0  0  0  0  0  0  0  0  0  0  0  0
   48.9878   36.8850   41.3309 H   0  0  0  0  0  0  0  0  0  0  0  0
   45.9443   33.9262   40.0108 H   0  0  0  0  0  0  0  0  0  0  0  0
   49.1674   35.5311   38.9087 H   0  0  0  0  0  0  0  0  0  0  0  0
  1  8  1  0
  1  3  1  0
  2  7  2  0
  3  2  1  0
  3  4  2  0
  4  5  1  0
  5  6  2  0
  7  6  1  0
  9  1  1  0
 10 11  2  0
 11  9  1  0
 12 11  1  0
 13 11  1  0
  1 14  1  6
  2 15  1  0
  4 16  1  0
  6 17  1  0
  8 18  1  0
  8 19  1  0
  8 20  1  0
 12 21  1  0
 13 22  1  0
M  ISO  8  14   8  15  14  16  14  17  14  18   8  19   8  20   8  21   3
M  ISO  1  22   3
M  END
>  <minimizedAffinity>  (1) 
-4.19390821

>  <minimizedRMSD>  (1) 
3.05306768

$$$$
