
     RDKit          3D

 40 43  0  0  0  0  0  0  0  0999 V2000
   44.7530   33.2940   41.0970 Cl  0  0  0  0  0  0  0  0  0  0  0  0
   46.2970   34.0420   40.9270 C   0  0  0  0  0  0  0  0  0  0  0  0
   46.8500   34.7500   41.9730 C   0  0  0  0  0  0  0  0  0  0  0  0
   48.1020   35.3750   41.8840 C   0  0  0  0  0  0  0  0  0  0  0  0
   48.7490   35.2380   40.6820 C   0  0  0  0  0  0  0  0  0  0  0  0
   48.2110   34.5430   39.6440 C   0  0  0  0  0  0  0  0  0  0  0  0
   46.9710   33.9290   39.7480 C   0  0  0  0  0  0  0  0  0  0  0  0
   46.5380   33.2250   38.5470 C   0  0  0  0  0  0  0  0  0  0  0  0
   47.1690   33.5070   37.3360 C   0  0  0  0  0  0  0  0  0  0  0  0
   46.2930   32.3900   36.1290 S   0  0  0  0  0  0  0  0  0  0  0  0
   45.2150   31.7430   37.5400 C   0  0  0  0  0  0  0  0  0  0  0  0
   45.6050   32.3220   38.4050 N   0  0  0  0  0  0  0  0  0  0  0  0
   44.2140   30.6980   37.0890 N   0  0  0  0  0  0  0  0  0  0  0  0
   44.6430   29.3630   36.7910 C   0  0  0  0  0  0  0  0  0  0  0  0
   43.7610   28.8370   35.7070 C   0  0  0  0  0  0  0  0  0  0  0  0
   42.3610   28.9800   35.9450 N   0  0  0  0  0  0  0  0  0  0  0  0
   41.9940   29.8840   36.9860 C   0  0  0  0  0  0  0  0  0  0  0  0
   42.8690   31.1440   36.9940 C   0  0  0  0  0  0  0  0  0  0  0  0
   45.5660   34.0310   45.3540 C   0  0  0  0  0  0  0  0  0  0  0  0
   44.6880   35.0970   45.5790 C   0  0  0  0  0  0  0  0  0  0  0  0
   44.5390   36.0470   44.5840 C   0  0  0  0  0  0  0  0  0  0  0  0
   45.2540   35.8930   43.4440 N   0  0  0  0  0  0  0  0  0  0  0  0
   46.1040   34.8560   43.2340 C   0  0  0  0  0  0  0  0  0  0  0  0
   46.2390   33.9480   44.1970 N   0  0  0  0  0  0  0  0  0  0  0  0
   48.5369   35.9382   42.7229 H   0  0  0  0  0  0  0  0  0  0  0  0
   49.7361   35.7060   40.5534 H   0  0  0  0  0  0  0  0  0  0  0  0
   48.7716   34.4659   38.7007 H   0  0  0  0  0  0  0  0  0  0  0  0
   47.9861   34.2170   37.1405 H   0  0  0  0  0  0  0  0  0  0  0  0
   45.6894   29.3721   36.4519 H   0  0  0  0  0  0  0  0  0  0  0  0
   44.5766   28.7269   37.6860 H   0  0  0  0  0  0  0  0  0  0  0  0
   43.9778   27.7660   35.5804 H   0  0  0  0  0  0  0  0  0  0  0  0
   43.9832   29.4368   34.8121 H   0  0  0  0  0  0  0  0  0  0  0  0
   41.9248   29.3102   35.0723 H   0  0  0  0  0  0  0  0  0  0  0  0
   40.9449   30.1821   36.8429 H   0  0  0  0  0  0  0  0  0  0  0  0
   42.1359   29.3681   37.9471 H   0  0  0  0  0  0  0  0  0  0  0  0
   42.7223   31.7149   36.0653 H   0  0  0  0  0  0  0  0  0  0  0  0
   42.6081   31.8052   37.8335 H   0  0  0  0  0  0  0  0  0  0  0  0
   45.7043   33.2605   46.1267 H   0  0  0  0  0  0  0  0  0  0  0  0
   44.1300   35.1778   46.5235 H   0  0  0  0  0  0  0  0  0  0  0  0
   43.8597   36.9022   44.7150 H   0  0  0  0  0  0  0  0  0  0  0  0
  2  1  1  0
  2  3  2  0
  3 23  1  0
  4  3  1  0
  5  4  2  0
  6  7  2  0
  6  5  1  0
  7  2  1  0
  8  7  1  0
  9  8  2  0
 10  9  1  0
 10 11  1  0
 11 12  2  0
 12  8  1  0
 13 11  1  0
 14 13  1  0
 15 16  1  0
 15 14  1  0
 16 17  1  0
 17 18  1  0
 18 13  1  0
 19 20  2  0
 21 20  1  0
 22 21  2  0
 23 22  1  0
 23 24  2  0
 24 19  1  0
  4 25  1  0
  5 26  1  0
  6 27  1  0
  9 28  1  0
 14 29  1  0
 14 30  1  0
 15 31  1  0
 15 32  1  0
 16 33  1  0
 17 34  1  0
 17 35  1  0
 18 36  1  0
 18 37  1  0
 19 38  1  0
 20 39  1  0
 21 40  1  0
M  ISO  8  25  14  26  14  27  14  28  14  29  13  30  13  31  13  32  13
M  ISO  8  33   5  34  13  35  13  36  13  37  13  38  14  39  14  40  14
M  END
>  <minimizedAffinity>  (1) 
-6.06453037

>  <minimizedRMSD>  (1) 
0.807651997

$$$$
