
     RDKit          3D

 23 23  0  0  1  0  0  0  0  0999 V2000
   45.9300   35.3050   42.4500 C   0  0  1  0  0  0  0  0  0  0  0  0
   44.8620   35.3350   44.6590 C   0  0  0  0  0  0  0  0  0  0  0  0
   45.8050   34.7700   43.7760 C   0  0  0  0  0  0  0  0  0  0  0  0
   46.5590   33.6970   44.2420 C   0  0  0  0  0  0  0  0  0  0  0  0
   46.3510   33.2490   45.5180 N   0  0  0  0  0  0  0  0  0  0  0  0
   45.4390   33.8150   46.3320 C   0  0  0  0  0  0  0  0  0  0  0  0
   44.6830   34.8660   45.9110 N   0  0  0  0  0  0  0  0  0  0  0  0
   47.2900   34.9630   41.8970 C   0  0  0  0  0  0  0  0  0  0  0  0
   44.8780   34.7840   41.5130 C   0  0  0  0  0  0  0  0  0  0  0  0
   43.7620   35.4170   41.1560 C   0  0  0  0  0  0  0  0  0  0  0  0
   42.7510   34.8730   40.2290 C   0  0  0  0  0  0  0  0  0  0  0  0
   45.7980   36.3943   42.5269 H   0  0  0  0  0  0  0  0  0  0  0  0
   44.2533   36.1847   44.3162 H   0  0  0  0  0  0  0  0  0  0  0  0
   47.3090   33.2175   43.5958 H   0  0  0  0  0  0  0  0  0  0  0  0
   45.3033   33.4227   47.3507 H   0  0  0  0  0  0  0  0  0  0  0  0
   47.9898   34.7870   42.7273 H   0  0  0  0  0  0  0  0  0  0  0  0
   47.2173   34.0552   41.2801 H   0  0  0  0  0  0  0  0  0  0  0  0
   47.6554   35.7972   41.2801 H   0  0  0  0  0  0  0  0  0  0  0  0
   45.0450   33.7862   41.0812 H   0  0  0  0  0  0  0  0  0  0  0  0
   43.5813   36.4150   41.5819 H   0  0  0  0  0  0  0  0  0  0  0  0
   41.9260   34.4291   40.8055 H   0  0  0  0  0  0  0  0  0  0  0  0
   42.3611   35.6831   39.5952 H   0  0  0  0  0  0  0  0  0  0  0  0
   43.2122   34.1013   39.5952 H   0  0  0  0  0  0  0  0  0  0  0  0
  1  3  1  0
  2  7  2  0
  3  4  2  0
  3  2  1  0
  4  5  1  0
  5  6  2  0
  7  6  1  0
  8  1  1  0
  9  1  1  0
 10  9  2  0
 11 10  1  0
  1 12  1  1
  2 13  1  0
  4 14  1  0
  6 15  1  0
  8 16  1  0
  8 17  1  0
  8 18  1  0
  9 19  1  0
 10 20  1  0
 11 21  1  0
 11 22  1  0
 11 23  1  0
M  ISO  8  12   8  13  14  14  14  15  14  16   8  17   8  18   8  21   8
M  ISO  2  22   8  23   8
M  END
>  <minimizedAffinity>  (1) 
-3.82174993

>  <minimizedRMSD>  (1) 
1.33727062

$$$$
