
     RDKit          3D

 17 17  0  0  1  0  0  0  0  0999 V2000
   45.1890   35.2510   44.0750 C   0  0  0  0  0  0  0  0  0  0  0  0
   46.2380   34.6560   43.3740 C   0  0  0  0  0  0  0  0  0  0  0  0
   46.9280   33.6290   44.0170 C   0  0  0  0  0  0  0  0  0  0  0  0
   46.5560   33.2490   45.2850 N   0  0  0  0  0  0  0  0  0  0  0  0
   45.5220   33.8720   45.9090 C   0  0  0  0  0  0  0  0  0  0  0  0
   44.8430   34.8700   45.3020 N   0  0  0  0  0  0  0  0  0  0  0  0
   46.5890   35.0760   42.0450 C   0  0  1  0  0  0  0  0  0  0  0  0
   48.0850   35.1640   41.8930 C   0  0  0  0  0  0  0  0  0  0  0  0
   45.9050   33.8880   40.8460 S   0  0  0  0  0  0  0  0  0  0  0  0
   44.6267   36.0658   43.5954 H   0  0  0  0  0  0  0  0  0  0  0  0
   47.7657   33.1254   43.5124 H   0  0  0  0  0  0  0  0  0  0  0  0
   45.2335   33.5591   46.9233 H   0  0  0  0  0  0  0  0  0  0  0  0
   46.1680   36.0750   41.8585 H   0  0  0  0  0  0  0  0  0  0  0  0
   48.5536   35.1916   42.8878 H   0  0  0  0  0  0  0  0  0  0  0  0
   48.4497   34.2858   41.3401 H   0  0  0  0  0  0  0  0  0  0  0  0
   48.3442   36.0789   41.3401 H   0  0  0  0  0  0  0  0  0  0  0  0
   45.3092   32.8532   41.5176 H   0  0  0  0  0  0  0  0  0  0  0  0
  1  6  2  0
  2  3  2  0
  2  1  1  0
  3  4  1  0
  4  5  2  0
  6  5  1  0
  7  2  1  0
  8  7  1  0
  9  7  1  0
  1 10  1  0
  3 11  1  0
  5 12  1  0
  7 13  1  6
  8 14  1  0
  8 15  1  0
  8 16  1  0
  9 17  1  0
M  ISO  8  10  14  11  14  12  14  13   8  14   8  15   8  16   8  17  11
M  END
>  <minimizedAffinity>  (1) 
-3.18788648

>  <minimizedRMSD>  (1) 
0.0935460553

$$$$
