
     RDKit          3D

 37 40  0  0  0  0  0  0  0  0999 V2000
   44.4700   33.4170   41.1650 Cl  0  0  0  0  0  0  0  0  0  0  0  0
   46.0710   34.0220   40.9660 C   0  0  0  0  0  0  0  0  0  0  0  0
   46.7010   34.6650   42.0120 C   0  0  0  0  0  0  0  0  0  0  0  0
   47.9900   35.1720   41.8950 C   0  0  0  0  0  0  0  0  0  0  0  0
   48.6020   34.9950   40.6710 C   0  0  0  0  0  0  0  0  0  0  0  0
   47.9880   34.3670   39.6440 C   0  0  0  0  0  0  0  0  0  0  0  0
   46.7120   33.8650   39.7610 C   0  0  0  0  0  0  0  0  0  0  0  0
   45.5150   34.0100   45.4440 C   0  0  0  0  0  0  0  0  0  0  0  0
   44.6900   35.0980   45.6860 C   0  0  0  0  0  0  0  0  0  0  0  0
   44.5360   36.0470   44.6940 C   0  0  0  0  0  0  0  0  0  0  0  0
   45.1980   35.8840   43.5160 N   0  0  0  0  0  0  0  0  0  0  0  0
   46.0010   34.8200   43.2850 C   0  0  0  0  0  0  0  0  0  0  0  0
   46.1410   33.9020   44.2630 N   0  0  0  0  0  0  0  0  0  0  0  0
   46.1830   33.2080   38.5650 C   0  0  0  0  0  0  0  0  0  0  0  0
   46.8530   33.3980   37.3580 C   0  0  0  0  0  0  0  0  0  0  0  0
   45.8300   32.4010   36.1700 S   0  0  0  0  0  0  0  0  0  0  0  0
   44.6620   31.9080   37.5770 C   0  0  0  0  0  0  0  0  0  0  0  0
   45.1250   32.4360   38.4430 N   0  0  0  0  0  0  0  0  0  0  0  0
   42.2160   31.3940   37.4810 C   0  0  0  0  0  0  0  0  0  0  0  0
   43.5130   31.0190   37.2130 C   0  0  0  0  0  0  0  0  0  0  0  0
   43.6910   29.8010   36.5940 C   0  0  0  0  0  0  0  0  0  0  0  0
   42.6610   28.9780   36.2460 C   0  0  0  0  0  0  0  0  0  0  0  0
   41.3820   29.3740   36.5220 C   0  0  0  0  0  0  0  0  0  0  0  0
   41.1530   30.5850   37.1420 C   0  0  0  0  0  0  0  0  0  0  0  0
   41.9110   33.6810   38.6720 N   0  0  0  0  0  0  0  0  0  0  0  0
   42.0580   32.6600   38.1340 C   0  0  0  0  0  0  0  0  0  0  0  0
   48.4925   35.6840   42.7289 H   0  0  0  0  0  0  0  0  0  0  0  0
   49.6231   35.3776   40.5265 H   0  0  0  0  0  0  0  0  0  0  0  0
   48.5223   34.2541   38.6891 H   0  0  0  0  0  0  0  0  0  0  0  0
   45.6552   33.2397   46.2166 H   0  0  0  0  0  0  0  0  0  0  0  0
   44.1685   35.2033   46.6488 H   0  0  0  0  0  0  0  0  0  0  0  0
   43.8880   36.9214   44.8538 H   0  0  0  0  0  0  0  0  0  0  0  0
   47.7590   33.9891   37.1588 H   0  0  0  0  0  0  0  0  0  0  0  0
   44.7174   29.4756   36.3688 H   0  0  0  0  0  0  0  0  0  0  0  0
   42.8555   28.0142   35.7528 H   0  0  0  0  0  0  0  0  0  0  0  0
   40.5352   28.7269   36.2497 H   0  0  0  0  0  0  0  0  0  0  0  0
   40.1243   30.9041   37.3653 H   0  0  0  0  0  0  0  0  0  0  0  0
  2  1  1  0
  2  3  2  0
  3 12  1  0
  4  3  1  0
  5  4  2  0
  6  7  2  0
  6  5  1  0
  7  2  1  0
  8  9  2  0
 10  9  1  0
 11 10  2  0
 12 11  1  0
 12 13  2  0
 13  8  1  0
 14  7  1  0
 15 14  2  0
 16 15  1  0
 16 17  1  0
 17 18  2  0
 18 14  1  0
 19 26  1  0
 20 19  2  0
 20 17  1  0
 21 20  1  0
 22 23  1  0
 22 21  2  0
 23 24  2  0
 24 19  1  0
 26 25  3  0
  4 27  1  0
  5 28  1  0
  6 29  1  0
  8 30  1  0
  9 31  1  0
 10 32  1  0
 15 33  1  0
 21 34  1  0
 22 35  1  0
 23 36  1  0
 24 37  1  0
M  ISO  8  27  14  28  14  29  14  30  14  31  14  32  14  33  14  34  14
M  ISO  3  35  14  36  14  37  14
M  END
>  <minimizedAffinity>  (1) 
-5.95804882

>  <minimizedRMSD>  (1) 
1.56535411

$$$$
