
     RDKit          3D

 30 32  0  0  1  0  0  0  0  0999 V2000
   46.4580   34.5060   43.1520 C   0  0  2  0  0  0  0  0  0  0  0  0
   46.4660   33.4410   45.3740 C   0  0  0  0  0  0  0  0  0  0  0  0
   46.2870   33.2960   43.9780 C   0  0  0  0  0  0  0  0  0  0  0  0
   45.9790   32.0140   43.4900 C   0  0  0  0  0  0  0  0  0  0  0  0
   45.8810   31.0330   44.4050 N   0  0  0  0  0  0  0  0  0  0  0  0
   46.0540   31.2040   45.7050 C   0  0  0  0  0  0  0  0  0  0  0  0
   46.3510   32.4150   46.2130 N   0  0  0  0  0  0  0  0  0  0  0  0
   45.0960   34.9430   42.7160 C   0  0  0  0  0  0  0  0  0  0  0  0
   44.0620   35.4780   43.4390 C   0  0  0  0  0  0  0  0  0  0  0  0
   43.0150   35.7350   42.6260 N   0  0  0  0  0  0  0  0  0  0  0  0
   43.4010   35.3560   41.3720 C   0  0  0  0  0  0  0  0  0  0  0  0
   44.6560   34.8810   41.4410 N   0  0  0  0  0  0  0  0  0  0  0  0
   47.2730   34.1280   41.9640 C   0  0  0  0  0  0  0  0  0  0  0  0
   48.7290   34.2400   42.2440 C   0  0  0  0  0  0  0  0  0  0  0  0
   49.4580   33.0640   42.0070 C   0  0  0  0  0  0  0  0  0  0  0  0
   50.7880   33.2730   42.2980 C   0  0  0  0  0  0  0  0  0  0  0  0
   50.8140   34.5590   42.6980 N   0  0  0  0  0  0  0  0  0  0  0  0
   49.6370   35.1240   42.6690 N   0  0  0  0  0  0  0  0  0  0  0  0
   46.9562   35.3182   43.7017 H   0  0  0  0  0  0  0  0  0  0  0  0
   46.7082   34.4347   45.7789 H   0  0  0  0  0  0  0  0  0  0  0  0
   45.8264   31.8234   42.4174 H   0  0  0  0  0  0  0  0  0  0  0  0
   45.9536   30.3429   46.3821 H   0  0  0  0  0  0  0  0  0  0  0  0
   44.0820   35.6698   44.5220 H   0  0  0  0  0  0  0  0  0  0  0  0
   42.1063   36.1368   42.8975 H   0  0  0  0  0  0  0  0  0  0  0  0
   42.7889   35.4274   40.4609 H   0  0  0  0  0  0  0  0  0  0  0  0
   47.0174   34.7957   41.1281 H   0  0  0  0  0  0  0  0  0  0  0  0
   47.0497   33.0810   41.7113 H   0  0  0  0  0  0  0  0  0  0  0  0
   49.0312   32.1176   41.6435 H   0  0  0  0  0  0  0  0  0  0  0  0
   51.6247   32.5630   42.2222 H   0  0  0  0  0  0  0  0  0  0  0  0
   51.6718   35.0454   42.9954 H   0  0  0  0  0  0  0  0  0  0  0  0
  1  3  1  0
  2  7  2  0
  3  2  1  0
  4  3  2  0
  4  5  1  0
  5  6  2  0
  6  7  1  0
  8  1  1  0
  8  9  2  0
 10  9  1  0
 11 12  2  0
 11 10  1  0
 12  8  1  0
 13 14  1  0
 13  1  1  0
 14 18  2  0
 15 14  1  0
 15 16  2  0
 16 17  1  0
 18 17  1  0
  1 19  1  1
  2 20  1  0
  4 21  1  0
  6 22  1  0
  9 23  1  0
 10 24  1  0
 11 25  1  0
 13 26  1  0
 13 27  1  0
 15 28  1  0
 16 29  1  0
 17 30  1  0
M  ISO  8  19   8  20  14  21  14  22  14  23  14  24   9  25  14  26   8
M  ISO  4  27   8  28  14  29  14  30   9
M  END
>  <minimizedAffinity>  (1) 
-4.92568111

>  <minimizedRMSD>  (1) 
3.596977

$$$$
