
     RDKit          3D

 21 22  0  0  0  0  0  0  0  0999 V2000
   45.1210   34.6020   45.3310 C   0  0  0  0  0  0  0  0  0  0  0  0
   45.5760   34.9010   44.0360 C   0  0  0  0  0  0  0  0  0  0  0  0
   46.6250   34.1270   43.5270 C   0  0  0  0  0  0  0  0  0  0  0  0
   47.1470   33.1470   44.2890 N   0  0  0  0  0  0  0  0  0  0  0  0
   46.6850   32.8840   45.5380 C   0  0  0  0  0  0  0  0  0  0  0  0
   45.6810   33.6080   46.0500 N   0  0  0  0  0  0  0  0  0  0  0  0
   47.1810   34.3410   42.2000 C   0  0  0  0  0  0  0  0  0  0  0  0
   48.2220   35.2240   42.0750 C   0  0  0  0  0  0  0  0  0  0  0  0
   48.8030   35.4830   40.8510 C   0  0  0  0  0  0  0  0  0  0  0  0
   48.3590   34.8590   39.6960 C   0  0  0  0  0  0  0  0  0  0  0  0
   47.3140   33.9750   39.8400 C   0  0  0  0  0  0  0  0  0  0  0  0
   46.7350   33.7200   41.0640 C   0  0  0  0  0  0  0  0  0  0  0  0
   44.0990   35.3500   45.8340 O   0  0  0  0  0  0  0  0  0  0  0  0
   45.1253   35.7119   43.4450 H   0  0  0  0  0  0  0  0  0  0  0  0
   47.1360   32.0747   46.1309 H   0  0  0  0  0  0  0  0  0  0  0  0
   48.6024   35.7373   42.9704 H   0  0  0  0  0  0  0  0  0  0  0  0
   49.6356   36.1993   40.7905 H   0  0  0  0  0  0  0  0  0  0  0  0
   48.8173   35.0595   38.7164 H   0  0  0  0  0  0  0  0  0  0  0  0
   46.9290   33.4558   38.9500 H   0  0  0  0  0  0  0  0  0  0  0  0
   45.9009   33.0059   41.1297 H   0  0  0  0  0  0  0  0  0  0  0  0
   43.7018   36.0752   45.2896 H   0  0  0  0  0  0  0  0  0  0  0  0
  1 13  1  0
  1  6  2  0
  2  1  1  0
  3  2  2  0
  3  4  1  0
  4  5  2  0
  5  6  1  0
  7  3  1  0
  8  7  2  0
  9  8  1  0
 10 11  1  0
 10  9  2  0
 11 12  2  0
 12  7  1  0
  2 14  1  0
  5 15  1  0
  8 16  1  0
  9 17  1  0
 10 18  1  0
 11 19  1  0
 12 20  1  0
 13 21  1  0
M  ISO  8  14  14  15  14  16  14  17  14  18  14  19  14  20  14  21   3
M  END
>  <minimizedAffinity>  (1) 
-5.12249374

>  <minimizedRMSD>  (1) 
2.19929385

$$$$
