
     RDKit          3D

 27 28  0  0  1  0  0  0  0  0999 V2000
   48.5170   33.7980   42.1870 C   0  0  1  0  0  0  0  0  0  0  0  0
   47.3570   32.8870   42.4450 C   0  0  2  0  0  0  0  0  0  0  0  0
   46.4140   32.7670   41.2620 C   0  0  0  0  0  0  0  0  0  0  0  0
   47.0400   32.9780   40.0480 O   0  0  0  0  0  0  0  0  0  0  0  0
   47.5350   34.2690   39.9100 C   0  0  0  0  0  0  0  0  0  0  0  0
   48.1130   34.8340   41.1670 C   0  0  2  0  0  0  0  0  0  0  0  0
   44.7980   34.9080   44.3350 C   0  0  0  0  0  0  0  0  0  0  0  0
   45.5250   34.3910   43.2500 C   0  0  0  0  0  0  0  0  0  0  0  0
   46.5560   33.4660   43.5500 C   0  0  0  0  0  0  0  0  0  0  0  0
   46.7790   33.1350   44.8430 N   0  0  0  0  0  0  0  0  0  0  0  0
   46.0530   33.6580   45.8490 C   0  0  0  0  0  0  0  0  0  0  0  0
   45.0710   34.5350   45.6030 N   0  0  0  0  0  0  0  0  0  0  0  0
   43.8020   35.8020   44.0510 O   0  0  0  0  0  0  0  0  0  0  0  0
   48.7990   34.5040   43.3770 O   0  0  0  0  0  0  0  0  0  0  0  0
   49.2470   35.5860   40.8630 O   0  0  0  0  0  0  0  0  0  0  0  0
   49.3779   33.2074   41.8406 H   0  0  0  0  0  0  0  0  0  0  0  0
   47.7747   31.8941   42.6679 H   0  0  0  0  0  0  0  0  0  0  0  0
   45.9796   31.7564   41.2613 H   0  0  0  0  0  0  0  0  0  0  0  0
   45.6446   33.5450   41.3747 H   0  0  0  0  0  0  0  0  0  0  0  0
   48.3220   34.2578   39.1415 H   0  0  0  0  0  0  0  0  0  0  0  0
   46.6841   34.9092   39.6342 H   0  0  0  0  0  0  0  0  0  0  0  0
   47.3101   35.4414   41.6101 H   0  0  0  0  0  0  0  0  0  0  0  0
   45.3042   34.6904   42.2148 H   0  0  0  0  0  0  0  0  0  0  0  0
   46.2690   33.3613   46.8860 H   0  0  0  0  0  0  0  0  0  0  0  0
   43.6210   36.0598   43.1124 H   0  0  0  0  0  0  0  0  0  0  0  0
   48.5731   33.9385   44.1576 H   0  0  0  0  0  0  0  0  0  0  0  0
   49.6850   35.8765   41.7020 H   0  0  0  0  0  0  0  0  0  0  0  0
  1  2  1  0
  1 14  1  0
  2  9  1  0
  3  2  1  0
  4  3  1  0
  5  4  1  0
  5  6  1  0
  6 15  1  0
  6  1  1  0
  7 12  2  0
  8  9  2  0
  8  7  1  0
  9 10  1  0
 10 11  2  0
 12 11  1  0
 13  7  1  0
  1 16  1  6
  2 17  1  1
  3 18  1  0
  3 19  1  0
  5 20  1  0
  5 21  1  0
  6 22  1  1
  8 23  1  0
 11 24  1  0
 13 25  1  0
 14 26  1  0
 15 27  1  0
M  ISO  8  16  13  17  13  18  13  19  13  20  13  21  13  22  13  23  14
M  ISO  4  24  14  25   3  26   3  27   3
M  END
>  <minimizedAffinity>  (1) 
-5.08973932

>  <minimizedRMSD>  (1) 
1.48492658

$$$$
