
     RDKit          3D

 21 22  0  0  0  0  0  0  0  0999 V2000
   44.6930   35.1410   44.1540 C   0  0  0  0  0  0  0  0  0  0  0  0
   45.2020   35.1130   42.8460 C   0  0  0  0  0  0  0  0  0  0  0  0
   46.3310   34.3240   42.5880 C   0  0  0  0  0  0  0  0  0  0  0  0
   46.8590   33.6360   43.6230 N   0  0  0  0  0  0  0  0  0  0  0  0
   46.3420   33.6910   44.8570 C   0  0  0  0  0  0  0  0  0  0  0  0
   45.2670   34.4340   45.1300 N   0  0  0  0  0  0  0  0  0  0  0  0
   48.5260   35.8290   41.9690 F   0  0  0  0  0  0  0  0  0  0  0  0
   48.0160   35.0290   40.9800 C   0  0  0  0  0  0  0  0  0  0  0  0
   46.9090   34.2520   41.2490 C   0  0  0  0  0  0  0  0  0  0  0  0
   46.4530   33.4780   40.2160 C   0  0  0  0  0  0  0  0  0  0  0  0
   47.0630   33.4710   38.9750 C   0  0  0  0  0  0  0  0  0  0  0  0
   48.1670   34.2680   38.7660 C   0  0  0  0  0  0  0  0  0  0  0  0
   48.6680   35.0660   39.7640 C   0  0  0  0  0  0  0  0  0  0  0  0
   43.5940   35.9180   44.3760 O   0  0  0  0  0  0  0  0  0  0  0  0
   44.7264   35.6959   42.0435 H   0  0  0  0  0  0  0  0  0  0  0  0
   46.8137   33.1109   45.6639 H   0  0  0  0  0  0  0  0  0  0  0  0
   45.5717   32.8402   40.3786 H   0  0  0  0  0  0  0  0  0  0  0  0
   46.6718   32.8374   38.1654 H   0  0  0  0  0  0  0  0  0  0  0  0
   48.6562   34.2648   37.7808 H   0  0  0  0  0  0  0  0  0  0  0  0
   49.5483   35.7054   39.6022 H   0  0  0  0  0  0  0  0  0  0  0  0
   43.1914   36.4306   43.6308 H   0  0  0  0  0  0  0  0  0  0  0  0
  1 14  1  0
  1  6  2  0
  2  1  1  0
  3  2  2  0
  3  4  1  0
  4  5  2  0
  5  6  1  0
  8  9  2  0
  8  7  1  0
  9  3  1  0
 10  9  1  0
 11 10  2  0
 12 11  1  0
 12 13  2  0
 13  8  1  0
  2 15  1  0
  5 16  1  0
 10 17  1  0
 11 18  1  0
 12 19  1  0
 13 20  1  0
 14 21  1  0
M  ISO  7  15  14  16  14  17  14  18  14  19  14  20  14  21   3
M  END
>  <minimizedAffinity>  (1) 
-4.96011162

>  <minimizedRMSD>  (1) 
2.35650349

$$$$
