
     RDKit          3D

 24 25  0  0  0  0  0  0  0  0999 V2000
   44.8420   35.0870   44.4630 C   0  0  0  0  0  0  0  0  0  0  0  0
   45.7400   35.0690   43.3850 C   0  0  0  0  0  0  0  0  0  0  0  0
   46.8670   34.2280   43.4840 C   0  0  0  0  0  0  0  0  0  0  0  0
   47.0130   33.4840   44.6200 N   0  0  0  0  0  0  0  0  0  0  0  0
   46.1270   33.5360   45.6220 C   0  0  0  0  0  0  0  0  0  0  0  0
   45.0530   34.3240   45.5550 N   0  0  0  0  0  0  0  0  0  0  0  0
   47.8760   34.1310   42.4080 C   0  0  0  0  0  0  0  0  0  0  0  0
   47.2720   33.4840   41.1780 C   0  0  0  0  0  0  0  0  0  0  0  0
   47.7110   34.3000   39.9870 C   0  0  0  0  0  0  0  0  0  0  0  0
   48.6720   35.3440   40.4850 C   0  0  0  0  0  0  0  0  0  0  0  0
   48.3780   35.4860   41.9630 C   0  0  0  0  0  0  0  0  0  0  0  0
   43.7560   35.9030   44.3600 O   0  0  0  0  0  0  0  0  0  0  0  0
   45.5704   35.6900   42.4930 H   0  0  0  0  0  0  0  0  0  0  0  0
   46.2876   32.9174   46.5173 H   0  0  0  0  0  0  0  0  0  0  0  0
   48.7041   33.5398   42.8260 H   0  0  0  0  0  0  0  0  0  0  0  0
   47.6326   32.4494   41.0802 H   0  0  0  0  0  0  0  0  0  0  0  0
   46.1747   33.4547   41.2497 H   0  0  0  0  0  0  0  0  0  0  0  0
   46.8397   34.7832   39.5208 H   0  0  0  0  0  0  0  0  0  0  0  0
   48.1913   33.6587   39.2333 H   0  0  0  0  0  0  0  0  0  0  0  0
   49.7107   35.0174   40.3285 H   0  0  0  0  0  0  0  0  0  0  0  0
   48.5540   36.2980   39.9502 H   0  0  0  0  0  0  0  0  0  0  0  0
   49.2918   35.7566   42.5123 H   0  0  0  0  0  0  0  0  0  0  0  0
   47.6401   36.2782   42.1576 H   0  0  0  0  0  0  0  0  0  0  0  0
   43.6252   36.4527   43.5471 H   0  0  0  0  0  0  0  0  0  0  0  0
  1  6  2  0
  2  3  2  0
  2  1  1  0
  3  4  1  0
  4  5  2  0
  6  5  1  0
  7  3  1  0
  8  7  1  0
  9 10  1  0
  9  8  1  0
 10 11  1  0
 11  7  1  0
 12  1  1  0
  2 13  1  0
  5 14  1  0
  7 15  1  0
  8 16  1  0
  8 17  1  0
  9 18  1  0
  9 19  1  0
 10 20  1  0
 10 21  1  0
 11 22  1  0
 11 23  1  0
 12 24  1  0
M  ISO  8  13  14  14  14  15  13  16  13  17  13  18  13  19  13  20  13
M  ISO  4  21  13  22  13  23  13  24   3
M  END
>  <minimizedAffinity>  (1) 
-4.87215948

>  <minimizedRMSD>  (1) 
1.59145892

$$$$
