
     RDKit          3D

 20 21  0  0  0  0  0  0  0  0999 V2000
   45.1480   35.6810   43.3880 C   0  0  0  0  0  0  0  0  0  0  0  0
   46.3510   35.1710   42.8570 C   0  0  0  0  0  0  0  0  0  0  0  0
   46.9960   34.1690   43.5950 C   0  0  0  0  0  0  0  0  0  0  0  0
   46.4600   33.7390   44.7550 N   0  0  0  0  0  0  0  0  0  0  0  0
   45.3000   34.2680   45.2150 C   0  0  0  0  0  0  0  0  0  0  0  0
   44.6570   35.2260   44.5350 N   0  0  0  0  0  0  0  0  0  0  0  0
   48.2400   33.6350   43.0550 C   0  0  0  0  0  0  0  0  0  0  0  0
   49.3170   34.4670   42.8330 C   0  0  0  0  0  0  0  0  0  0  0  0
   50.4900   33.9610   42.3240 C   0  0  0  0  0  0  0  0  0  0  0  0
   50.5190   32.5990   42.0540 C   0  0  0  0  0  0  0  0  0  0  0  0
   49.4330   31.7830   42.2830 C   0  0  0  0  0  0  0  0  0  0  0  0
   48.2860   32.3190   42.7890 N   0  0  0  0  0  0  0  0  0  0  0  0
   44.5090   36.6580   42.6780 O   0  0  0  0  0  0  0  0  0  0  0  0
   46.7640   35.5424   41.9075 H   0  0  0  0  0  0  0  0  0  0  0  0
   44.8791   33.9039   46.1639 H   0  0  0  0  0  0  0  0  0  0  0  0
   49.2375   35.5395   43.0639 H   0  0  0  0  0  0  0  0  0  0  0  0
   51.3632   34.6040   42.1396 H   0  0  0  0  0  0  0  0  0  0  0  0
   51.4392   32.1574   41.6439 H   0  0  0  0  0  0  0  0  0  0  0  0
   49.4907   30.7075   42.0594 H   0  0  0  0  0  0  0  0  0  0  0  0
   44.8935   36.9820   41.8252 H   0  0  0  0  0  0  0  0  0  0  0  0
  1  6  2  0
  2  1  1  0
  2  3  2  0
  3  4  1  0
  4  5  2  0
  6  5  1  0
  7  3  1  0
  8  7  2  0
  9  8  1  0
 10 11  1  0
 10  9  2  0
 11 12  2  0
 12  7  1  0
 13  1  1  0
  2 14  1  0
  5 15  1  0
  8 16  1  0
  9 17  1  0
 10 18  1  0
 11 19  1  0
 13 20  1  0
M  ISO  7  14  14  15  14  16  14  17  14  18  14  19  14  20   3
M  END
>  <minimizedAffinity>  (1) 
-4.49524069

>  <minimizedRMSD>  (1) 
0.867261767

$$$$
