
     RDKit          3D

 26 27  0  0  0  0  0  0  0  0999 V2000
   44.7540   35.0740   44.5910 C   0  0  0  0  0  0  0  0  0  0  0  0
   45.4140   34.8480   43.3730 C   0  0  0  0  0  0  0  0  0  0  0  0
   46.4890   33.9470   43.3680 C   0  0  0  0  0  0  0  0  0  0  0  0
   46.8200   33.3530   44.5450 N   0  0  0  0  0  0  0  0  0  0  0  0
   46.1600   33.5970   45.6960 C   0  0  0  0  0  0  0  0  0  0  0  0
   45.1240   34.4620   45.7100 N   0  0  0  0  0  0  0  0  0  0  0  0
   47.2040   33.6700   42.1710 N   0  0  0  0  0  0  0  0  0  0  0  0
   47.6710   34.7400   41.3620 C   0  0  0  0  0  0  0  0  0  0  0  0
   48.0730   34.3480   39.9730 C   0  0  0  0  0  0  0  0  0  0  0  0
   48.8620   33.0760   39.8960 C   0  0  0  0  0  0  0  0  0  0  0  0
   48.7900   32.2410   41.1430 C   0  0  0  0  0  0  0  0  0  0  0  0
   47.4360   32.3040   41.8080 C   0  0  0  0  0  0  0  0  0  0  0  0
   43.7070   35.9570   44.5700 O   0  0  0  0  0  0  0  0  0  0  0  0
   45.0985   35.3608   42.4524 H   0  0  0  0  0  0  0  0  0  0  0  0
   46.4663   33.0908   46.6234 H   0  0  0  0  0  0  0  0  0  0  0  0
   46.8683   35.4884   41.2876 H   0  0  0  0  0  0  0  0  0  0  0  0
   48.5786   35.1243   41.8504 H   0  0  0  0  0  0  0  0  0  0  0  0
   47.1601   34.2242   39.3719 H   0  0  0  0  0  0  0  0  0  0  0  0
   48.7271   35.1482   39.5963 H   0  0  0  0  0  0  0  0  0  0  0  0
   48.4765   32.4791   39.0563 H   0  0  0  0  0  0  0  0  0  0  0  0
   49.9160   33.3606   39.7616 H   0  0  0  0  0  0  0  0  0  0  0  0
   49.0043   31.1949   40.8791 H   0  0  0  0  0  0  0  0  0  0  0  0
   49.5286   32.6402   41.8537 H   0  0  0  0  0  0  0  0  0  0  0  0
   46.6574   31.9623   41.1101 H   0  0  0  0  0  0  0  0  0  0  0  0
   47.4068   31.6545   42.6953 H   0  0  0  0  0  0  0  0  0  0  0  0
   43.4505   36.4006   43.7229 H   0  0  0  0  0  0  0  0  0  0  0  0
  1  6  2  0
  2  1  1  0
  3  2  2  0
  3  4  1  0
  4  5  2  0
  5  6  1  0
  7  3  1  0
  8  7  1  0
  9  8  1  0
 10  9  1  0
 10 11  1  0
 11 12  1  0
 12  7  1  0
 13  1  1  0
  2 14  1  0
  5 15  1  0
  8 16  1  0
  8 17  1  0
  9 18  1  0
  9 19  1  0
 10 20  1  0
 10 21  1  0
 11 22  1  0
 11 23  1  0
 12 24  1  0
 12 25  1  0
 13 26  1  0
M  ISO  8  14  14  15  14  16  13  17  13  18  13  19  13  20  13  21  13
M  ISO  5  22  13  23  13  24  13  25  13  26   3
M  END
>  <minimizedAffinity>  (1) 
-4.24946165

>  <minimizedRMSD>  (1) 
1.34724092

$$$$
