
     RDKit          3D

 14 14  0  0  0  0  0  0  0  0999 V2000
   44.9990   35.4740   44.1860 C   0  0  0  0  0  0  0  0  0  0  0  0
   46.0080   34.9340   43.3640 C   0  0  0  0  0  0  0  0  0  0  0  0
   46.7480   33.8570   43.8860 C   0  0  0  0  0  0  0  0  0  0  0  0
   46.4700   33.3970   45.1200 N   0  0  0  0  0  0  0  0  0  0  0  0
   45.4870   33.9530   45.8740 C   0  0  0  0  0  0  0  0  0  0  0  0
   44.7620   34.9830   45.4020 N   0  0  0  0  0  0  0  0  0  0  0  0
   44.2830   36.5230   43.6700 O   0  0  0  0  0  0  0  0  0  0  0  0
   47.8360   33.2010   43.1200 C   0  0  0  0  0  0  0  0  0  0  0  0
   46.2081   35.3361   42.3599 H   0  0  0  0  0  0  0  0  0  0  0  0
   45.2818   33.5576   46.8797 H   0  0  0  0  0  0  0  0  0  0  0  0
   44.4863   36.8622   42.7624 H   0  0  0  0  0  0  0  0  0  0  0  0
   48.5635   32.7624   43.8188 H   0  0  0  0  0  0  0  0  0  0  0  0
   47.4119   32.4080   42.4866 H   0  0  0  0  0  0  0  0  0  0  0  0
   48.3394   33.9463   42.4866 H   0  0  0  0  0  0  0  0  0  0  0  0
  1  6  2  0
  2  3  2  0
  2  1  1  0
  3  4  1  0
  4  5  2  0
  6  5  1  0
  7  1  1  0
  8  3  1  0
  2  9  1  0
  5 10  1  0
  7 11  1  0
  8 12  1  0
  8 13  1  0
  8 14  1  0
M  ISO  6   9  14  10  14  11   3  12   8  13   8  14   8
M  END
>  <minimizedAffinity>  (1) 
-3.26008463

>  <minimizedRMSD>  (1) 
0.0522702672

$$$$
