
     RDKit          3D

 30 32  0  0  1  0  0  0  0  0999 V2000
   44.9170   34.4290   42.4780 C   0  0  0  0  0  0  0  0  0  0  0  0
   46.0890   34.6830   41.7480 C   0  0  0  0  0  0  0  0  0  0  0  0
   47.3220   34.4770   42.3720 C   0  0  0  0  0  0  0  0  0  0  0  0
   47.3320   34.0330   43.6690 N   0  0  0  0  0  0  0  0  0  0  0  0
   46.1850   33.8000   44.3370 C   0  0  0  0  0  0  0  0  0  0  0  0
   44.9880   33.9960   43.7450 N   0  0  0  0  0  0  0  0  0  0  0  0
   48.6100   34.7050   41.6590 C   0  0  0  0  0  0  0  0  0  0  0  0
   49.1400   36.1050   41.5630 C   0  0  0  0  0  0  0  0  0  0  0  0
   49.8090   35.0170   42.4170 C   0  0  0  0  0  0  0  0  0  0  0  0
   43.7460   34.6390   41.8540 O   0  0  0  0  0  0  0  0  0  0  0  0
   42.1110   33.1750   41.0460 C   0  0  2  0  0  0  0  0  0  0  0  0
   43.2930   34.0820   40.6800 C   0  0  1  0  0  0  0  0  0  0  0  0
   42.5450   35.1730   39.9210 C   0  0  0  0  0  0  0  0  0  0  0  0
   41.5060   35.4290   40.8220 O   0  0  0  0  0  0  0  0  0  0  0  0
   41.0160   34.1870   41.1940 C   0  0  0  0  0  0  0  0  0  0  0  0
   42.4060   32.5840   42.2780 O   0  0  0  0  0  0  0  0  0  0  0  0
   46.0377   35.0364   40.7076 H   0  0  0  0  0  0  0  0  0  0  0  0
   46.2248   33.4457   45.3776 H   0  0  0  0  0  0  0  0  0  0  0  0
   48.3635   33.9243   40.9243 H   0  0  0  0  0  0  0  0  0  0  0  0
   49.6166   36.4587   40.6368 H   0  0  0  0  0  0  0  0  0  0  0  0
   48.7448   37.1173   41.7334 H   0  0  0  0  0  0  0  0  0  0  0  0
   49.7655   35.0757   43.5146 H   0  0  0  0  0  0  0  0  0  0  0  0
   50.8214   34.5914   42.4792 H   0  0  0  0  0  0  0  0  0  0  0  0
   41.8714   32.3685   40.3373 H   0  0  0  0  0  0  0  0  0  0  0  0
   44.1296   33.6071   40.1466 H   0  0  0  0  0  0  0  0  0  0  0  0
   43.1731   36.0615   39.7594 H   0  0  0  0  0  0  0  0  0  0  0  0
   42.2205   34.8926   38.9080 H   0  0  0  0  0  0  0  0  0  0  0  0
   40.1695   33.9139   40.5467 H   0  0  0  0  0  0  0  0  0  0  0  0
   40.6719   34.2171   42.2384 H   0  0  0  0  0  0  0  0  0  0  0  0
   42.1083   33.1805   43.0099 H   0  0  0  0  0  0  0  0  0  0  0  0
  1  6  2  0
  2  3  2  0
  2  1  1  0
  3  4  1  0
  4  5  2  0
  6  5  1  0
  7  3  1  0
  7  9  1  0
  8  7  1  0
  8  9  1  0
 10  1  1  0
 11 15  1  0
 11 16  1  0
 12 11  1  0
 12 10  1  0
 13 12  1  0
 13 14  1  0
 14 15  1  0
  2 17  1  0
  5 18  1  0
  7 19  1  0
  8 20  1  0
  8 21  1  0
  9 22  1  0
  9 23  1  0
 11 24  1  6
 12 25  1  6
 13 26  1  0
 13 27  1  0
 15 28  1  0
 15 29  1  0
 16 30  1  0
M  ISO  8  17  14  18  14  19  13  20  13  21  13  22  13  23  13  24  13
M  ISO  6  25  13  26  13  27  13  28  13  29  13  30   3
M  END
>  <minimizedAffinity>  (1) 
-4.88325405

>  <minimizedRMSD>  (1) 
2.28045249

$$$$
