
     RDKit          3D

 46 50  0  0  1  0  0  0  0  0999 V2000
   42.8180   34.3340   38.9170 C   0  0  1  0  0  0  0  0  0  0  0  0
   43.0500   35.1700   40.1790 C   0  0  1  0  0  0  0  0  0  0  0  0
   41.8130   35.6630   40.6310 O   0  0  0  0  0  0  0  0  0  0  0  0
   40.9380   35.9720   39.5930 C   0  0  0  0  0  0  0  0  0  0  0  0
   40.4490   34.7090   38.9020 C   0  0  2  0  0  0  0  0  0  0  0  0
   41.5020   33.6150   39.1600 C   0  0  1  0  0  0  0  0  0  0  0  0
   42.7140   35.1600   37.8000 O   0  0  0  0  0  0  0  0  0  0  0  0
   40.5070   34.9090   37.5130 O   0  0  0  0  0  0  0  0  0  0  0  0
   43.4490   34.2630   41.1690 O   0  0  0  0  0  0  0  0  0  0  0  0
   44.5880   34.3290   41.8700 C   0  0  0  0  0  0  0  0  0  0  0  0
   45.8130   34.4790   41.2260 C   0  0  0  0  0  0  0  0  0  0  0  0
   46.9630   34.5440   41.9960 C   0  0  0  0  0  0  0  0  0  0  0  0
   46.8730   34.4590   43.3780 N   0  0  0  0  0  0  0  0  0  0  0  0
   45.6720   34.3140   43.9580 C   0  0  0  0  0  0  0  0  0  0  0  0
   44.5320   34.2490   43.2210 N   0  0  0  0  0  0  0  0  0  0  0  0
   48.3150   34.6900   41.3460 C   0  0  0  0  0  0  0  0  0  0  0  0
   49.0360   36.0050   41.5290 C   0  0  0  0  0  0  0  0  0  0  0  0
   49.5070   34.6800   42.1500 C   0  0  0  0  0  0  0  0  0  0  0  0
   41.3070   32.5360   38.3220 O   0  0  0  0  0  0  0  0  0  0  0  0
   39.5710   31.5450   39.5670 N   0  0  0  0  0  0  0  0  0  0  0  0
   40.3080   31.5850   38.4200 C   0  0  0  0  0  0  0  0  0  0  0  0
   39.8610   30.6260   37.5940 N   0  0  0  0  0  0  0  0  0  0  0  0
   38.8490   29.9580   38.1740 C   0  0  0  0  0  0  0  0  0  0  0  0
   38.0290   28.9090   37.8180 C   0  0  0  0  0  0  0  0  0  0  0  0
   37.0720   28.4710   38.6790 N   0  0  0  0  0  0  0  0  0  0  0  0
   36.9480   29.0810   39.8760 C   0  0  0  0  0  0  0  0  0  0  0  0
   37.7110   30.0950   40.2680 N   0  0  0  0  0  0  0  0  0  0  0  0
   38.6730   30.5520   39.4290 C   0  0  0  0  0  0  0  0  0  0  0  0
   43.6462   33.6358   38.7258 H   0  0  0  0  0  0  0  0  0  0  0  0
   43.7675   35.9803   39.9827 H   0  0  0  0  0  0  0  0  0  0  0  0
   40.0739   36.5172   40.0005 H   0  0  0  0  0  0  0  0  0  0  0  0
   41.4707   36.5918   38.8568 H   0  0  0  0  0  0  0  0  0  0  0  0
   39.4389   34.4554   39.2562 H   0  0  0  0  0  0  0  0  0  0  0  0
   41.4574   33.1810   40.1698 H   0  0  0  0  0  0  0  0  0  0  0  0
   42.5959   36.0982   38.0932 H   0  0  0  0  0  0  0  0  0  0  0  0
   40.7777   35.8425   37.3250 H   0  0  0  0  0  0  0  0  0  0  0  0
   45.8668   34.5445   40.1293 H   0  0  0  0  0  0  0  0  0  0  0  0
   45.6086   34.2462   45.0541 H   0  0  0  0  0  0  0  0  0  0  0  0
   47.9959   34.0924   40.4794 H   0  0  0  0  0  0  0  0  0  0  0  0
   49.5899   36.4608   40.6950 H   0  0  0  0  0  0  0  0  0  0  0  0
   48.7818   37.0118   41.8921 H   0  0  0  0  0  0  0  0  0  0  0  0
   49.4329   34.5280   43.2369 H   0  0  0  0  0  0  0  0  0  0  0  0
   50.4470   34.1090   42.1305 H   0  0  0  0  0  0  0  0  0  0  0  0
   39.6811   32.1599   40.3859 H   0  0  0  0  0  0  0  0  0  0  0  0
   38.1487   28.4259   36.8370 H   0  0  0  0  0  0  0  0  0  0  0  0
   36.1717   28.7183   40.5658 H   0  0  0  0  0  0  0  0  0  0  0  0
  1  6  1  0
  1  2  1  0
  2  3  1  0
  2  9  1  0
  4  3  1  0
  5  6  1  0
  5  4  1  0
  7  1  1  0
  8  5  1  0
  9 10  1  0
 10 15  1  0
 11 10  2  0
 11 12  1  0
 12 13  2  0
 13 14  1  0
 15 14  2  0
 16 17  1  0
 16 12  1  0
 16 18  1  0
 17 18  1  0
 19 21  1  0
 19  6  1  0
 21 20  1  0
 22 23  1  0
 22 21  2  0
 23 28  2  0
 24 23  1  0
 24 25  2  0
 25 26  1  0
 26 27  2  0
 28 20  1  0
 28 27  1  0
  1 29  1  6
  2 30  1  6
  4 31  1  0
  4 32  1  0
  5 33  1  1
  6 34  1  1
  7 35  1  0
  8 36  1  0
 11 37  1  0
 14 38  1  0
 16 39  1  0
 17 40  1  0
 17 41  1  0
 18 42  1  0
 18 43  1  0
 20 44  1  0
 24 45  1  0
 26 46  1  0
M  ISO  8  29  13  30  13  31  13  32  13  33  13  34  13  35   3  36   3
M  ISO  8  37  14  38  14  39  13  40  13  41  13  42  13  43  13  44   9
M  ISO  2  45  14  46  14
M  END
>  <minimizedAffinity>  (1) 
-6.42799234

>  <minimizedRMSD>  (1) 
2.14863157

$$$$
