
     RDKit          3D

 29 31  0  0  0  0  0  0  0  0999 V2000
   44.7390   33.3480   41.0910 Cl  0  0  0  0  0  0  0  0  0  0  0  0
   46.2940   34.0830   40.9330 C   0  0  0  0  0  0  0  0  0  0  0  0
   46.8460   34.7670   41.9900 C   0  0  0  0  0  0  0  0  0  0  0  0
   48.1060   35.3780   41.9010 C   0  0  0  0  0  0  0  0  0  0  0  0
   48.7470   35.2440   40.6930 C   0  0  0  0  0  0  0  0  0  0  0  0
   48.2000   34.5670   39.6480 C   0  0  0  0  0  0  0  0  0  0  0  0
   46.9630   33.9710   39.7420 C   0  0  0  0  0  0  0  0  0  0  0  0
   45.5650   34.0090   45.3680 C   0  0  0  0  0  0  0  0  0  0  0  0
   44.6950   35.0730   45.5910 C   0  0  0  0  0  0  0  0  0  0  0  0
   44.5430   36.0350   44.6100 C   0  0  0  0  0  0  0  0  0  0  0  0
   45.2500   35.9100   43.4600 N   0  0  0  0  0  0  0  0  0  0  0  0
   46.1020   34.8660   43.2430 C   0  0  0  0  0  0  0  0  0  0  0  0
   46.2420   33.9360   44.2050 N   0  0  0  0  0  0  0  0  0  0  0  0
   46.5190   33.2850   38.5370 C   0  0  0  0  0  0  0  0  0  0  0  0
   47.3610   33.2520   37.4300 C   0  0  0  0  0  0  0  0  0  0  0  0
   46.3860   32.2910   36.1700 S   0  0  0  0  0  0  0  0  0  0  0  0
   44.9790   32.1110   37.4230 C   0  0  0  0  0  0  0  0  0  0  0  0
   45.4020   32.6570   38.2980 N   0  0  0  0  0  0  0  0  0  0  0  0
   43.6580   31.3880   37.1920 C   0  0  0  0  0  0  0  0  0  0  0  0
   42.7160   32.3130   37.6600 F   0  0  0  0  0  0  0  0  0  0  0  0
   43.6310   30.2420   37.9620 F   0  0  0  0  0  0  0  0  0  0  0  0
   43.4610   31.1780   35.8610 F   0  0  0  0  0  0  0  0  0  0  0  0
   48.5514   35.9281   42.7430 H   0  0  0  0  0  0  0  0  0  0  0  0
   49.7394   35.7013   40.5665 H   0  0  0  0  0  0  0  0  0  0  0  0
   48.7602   34.4939   38.7041 H   0  0  0  0  0  0  0  0  0  0  0  0
   45.6989   33.2330   46.1361 H   0  0  0  0  0  0  0  0  0  0  0  0
   44.1360   35.1471   46.5354 H   0  0  0  0  0  0  0  0  0  0  0  0
   43.8616   36.8855   44.7596 H   0  0  0  0  0  0  0  0  0  0  0  0
   48.3646   33.6899   37.3247 H   0  0  0  0  0  0  0  0  0  0  0  0
  2  1  1  0
  2  3  2  0
  3 12  1  0
  4  3  1  0
  5  4  2  0
  6  7  2  0
  6  5  1  0
  7  2  1  0
  8  9  2  0
 10  9  1  0
 11 10  2  0
 12 11  1  0
 12 13  2  0
 13  8  1  0
 14  7  1  0
 15 14  2  0
 16 17  1  0
 16 15  1  0
 17 18  2  0
 18 14  1  0
 19 17  1  0
 19 20  1  0
 19 21  1  0
 22 19  1  0
  4 23  1  0
  5 24  1  0
  6 25  1  0
  8 26  1  0
  9 27  1  0
 10 28  1  0
 15 29  1  0
M  ISO  7  23  14  24  14  25  14  26  14  27  14  28  14  29  14
M  END
>  <minimizedAffinity>  (1) 
-5.74018621

>  <minimizedRMSD>  (1) 
1.068223

$$$$
