
     RDKit          3D

 47 50  0  0  1  0  0  0  0  0999 V2000
   42.7750   34.4600   38.7660 C   0  0  1  0  0  0  0  0  0  0  0  0
   42.9790   35.2030   40.0900 C   0  0  1  0  0  0  0  0  0  0  0  0
   41.7210   35.5930   40.5910 O   0  0  0  0  0  0  0  0  0  0  0  0
   40.8230   35.9420   39.5820 C   0  0  0  0  0  0  0  0  0  0  0  0
   40.3850   34.6970   38.8100 C   0  0  2  0  0  0  0  0  0  0  0  0
   41.4990   33.6580   38.9590 C   0  0  1  0  0  0  0  0  0  0  0  0
   42.6170   35.3650   37.7180 O   0  0  0  0  0  0  0  0  0  0  0  0
   40.4190   35.0330   37.4380 O   0  0  0  0  0  0  0  0  0  0  0  0
   43.4330   34.2400   41.0010 O   0  0  0  0  0  0  0  0  0  0  0  0
   44.5480   34.3280   41.7320 C   0  0  0  0  0  0  0  0  0  0  0  0
   45.7930   34.4610   41.1230 C   0  0  0  0  0  0  0  0  0  0  0  0
   46.9200   34.5520   41.9250 C   0  0  0  0  0  0  0  0  0  0  0  0
   46.7790   34.5080   43.2970 N   0  0  0  0  0  0  0  0  0  0  0  0
   45.5630   34.3790   43.8530 C   0  0  0  0  0  0  0  0  0  0  0  0
   44.4510   34.2890   43.0820 N   0  0  0  0  0  0  0  0  0  0  0  0
   48.2920   34.6760   41.3190 C   0  0  0  0  0  0  0  0  0  0  0  0
   49.0260   35.9830   41.5120 C   0  0  0  0  0  0  0  0  0  0  0  0
   49.4520   34.6650   42.1700 C   0  0  0  0  0  0  0  0  0  0  0  0
   41.3450   32.6370   38.0430 O   0  0  0  0  0  0  0  0  0  0  0  0
   40.6090   31.5690   40.0150 N   0  0  0  0  0  0  0  0  0  0  0  0
   39.8020   30.3810   40.2540 C   0  0  0  0  0  0  0  0  0  0  0  0
   38.6520   30.6340   39.2920 C   0  0  0  0  0  0  0  0  0  0  0  0
   39.2500   31.4530   38.1610 C   0  0  0  0  0  0  0  0  0  0  0  0
   40.7110   31.5230   38.5490 C   0  0  1  0  0  0  0  0  0  0  0  0
   43.6360   33.8231   38.5147 H   0  0  0  0  0  0  0  0  0  0  0  0
   43.6524   36.0621   39.9544 H   0  0  0  0  0  0  0  0  0  0  0  0
   39.9400   36.4202   40.0311 H   0  0  0  0  0  0  0  0  0  0  0  0
   41.3161   36.6390   38.8884 H   0  0  0  0  0  0  0  0  0  0  0  0
   39.4032   34.3441   39.1587 H   0  0  0  0  0  0  0  0  0  0  0  0
   41.4986   33.1460   39.9326 H   0  0  0  0  0  0  0  0  0  0  0  0
   42.4589   36.2707   38.0851 H   0  0  0  0  0  0  0  0  0  0  0  0
   40.5182   36.0132   37.3407 H   0  0  0  0  0  0  0  0  0  0  0  0
   45.8806   34.4932   40.0270 H   0  0  0  0  0  0  0  0  0  0  0  0
   45.4679   34.3459   44.9484 H   0  0  0  0  0  0  0  0  0  0  0  0
   47.9965   34.0739   40.4471 H   0  0  0  0  0  0  0  0  0  0  0  0
   49.6194   36.4178   40.6942 H   0  0  0  0  0  0  0  0  0  0  0  0
   48.7726   36.9987   41.8499 H   0  0  0  0  0  0  0  0  0  0  0  0
   49.3330   34.5319   43.2554 H   0  0  0  0  0  0  0  0  0  0  0  0
   50.3842   34.0816   42.1965 H   0  0  0  0  0  0  0  0  0  0  0  0
   40.1342   32.4241   40.3378 H   0  0  0  0  0  0  0  0  0  0  0  0
   40.3486   29.4604   40.0014 H   0  0  0  0  0  0  0  0  0  0  0  0
   39.5011   30.2325   41.3016 H   0  0  0  0  0  0  0  0  0  0  0  0
   38.2526   29.6829   38.9099 H   0  0  0  0  0  0  0  0  0  0  0  0
   37.8160   31.1565   39.7798 H   0  0  0  0  0  0  0  0  0  0  0  0
   38.8016   32.4564   38.1158 H   0  0  0  0  0  0  0  0  0  0  0  0
   39.0797   31.0180   37.1651 H   0  0  0  0  0  0  0  0  0  0  0  0
   41.3140   30.6906   38.1571 H   0  0  0  0  0  0  0  0  0  0  0  0
  1  6  1  0
  1  2  1  0
  2  3  1  0
  2  9  1  0
  4  3  1  0
  5  6  1  0
  5  4  1  0
  7  1  1  0
  8  5  1  0
  9 10  1  0
 10 15  1  0
 11 10  2  0
 11 12  1  0
 12 13  2  0
 13 14  1  0
 15 14  2  0
 16 17  1  0
 16 12  1  0
 16 18  1  0
 17 18  1  0
 19  6  1  0
 20 21  1  0
 22 21  1  0
 23 24  1  0
 23 22  1  0
 24 19  1  0
 24 20  1  0
  1 25  1  6
  2 26  1  6
  4 27  1  0
  4 28  1  0
  5 29  1  1
  6 30  1  1
  7 31  1  0
  8 32  1  0
 11 33  1  0
 14 34  1  0
 16 35  1  0
 17 36  1  0
 17 37  1  0
 18 38  1  0
 18 39  1  0
 20 40  1  0
 21 41  1  0
 21 42  1  0
 22 43  1  0
 22 44  1  0
 23 45  1  0
 23 46  1  0
 24 47  1  1
M  ISO  8  25  13  26  13  27  13  28  13  29  13  30  13  31   3  32   3
M  ISO  8  33  14  34  14  35  13  36  13  37  13  38  13  39  13  40   5
M  ISO  7  41  13  42  13  43  13  44  13  45  13  46  13  47  13
M  END
>  <minimizedAffinity>  (1) 
-6.07121992

>  <minimizedRMSD>  (1) 
0.995631218

$$$$
