
     RDKit          3D

 42 45  0  0  1  0  0  0  0  0999 V2000
   42.8310   34.4860   38.7460 C   0  0  1  0  0  0  0  0  0  0  0  0
   42.9720   35.1490   40.1150 C   0  0  1  0  0  0  0  0  0  0  0  0
   41.6880   35.4180   40.6280 O   0  0  0  0  0  0  0  0  0  0  0  0
   40.7640   35.7560   39.6370 C   0  0  0  0  0  0  0  0  0  0  0  0
   40.4340   34.5530   38.7740 C   0  0  2  0  0  0  0  0  0  0  0  0
   41.6260   33.5760   38.8750 C   0  0  1  0  0  0  0  0  0  0  0  0
   42.6030   35.4370   37.7560 O   0  0  0  0  0  0  0  0  0  0  0  0
   40.4420   34.9510   37.4300 O   0  0  0  0  0  0  0  0  0  0  0  0
   43.4950   34.1800   40.9720 O   0  0  0  0  0  0  0  0  0  0  0  0
   44.6040   34.3120   41.7080 C   0  0  0  0  0  0  0  0  0  0  0  0
   45.8530   34.4460   41.1060 C   0  0  0  0  0  0  0  0  0  0  0  0
   46.9700   34.5810   41.9160 C   0  0  0  0  0  0  0  0  0  0  0  0
   46.8200   34.5820   43.2900 N   0  0  0  0  0  0  0  0  0  0  0  0
   45.5980   34.4510   43.8360 C   0  0  0  0  0  0  0  0  0  0  0  0
   44.4920   34.3170   43.0590 N   0  0  0  0  0  0  0  0  0  0  0  0
   48.3430   34.7090   41.3230 C   0  0  0  0  0  0  0  0  0  0  0  0
   49.0690   36.0220   41.5120 C   0  0  0  0  0  0  0  0  0  0  0  0
   49.5000   34.7100   42.1790 C   0  0  0  0  0  0  0  0  0  0  0  0
   41.5410   32.6000   37.9150 O   0  0  0  0  0  0  0  0  0  0  0  0
   40.7830   31.4970   38.2500 C   0  0  0  0  0  0  0  0  0  0  0  0
   40.7520   30.4180   37.1560 C   0  0  0  0  0  0  0  0  0  0  0  0
   39.5340   31.1670   37.5210 C   0  0  0  0  0  0  0  0  0  0  0  0
   43.7436   33.9416   38.4618 H   0  0  0  0  0  0  0  0  0  0  0  0
   43.5833   36.0600   40.0351 H   0  0  0  0  0  0  0  0  0  0  0  0
   39.8423   36.1217   40.1132 H   0  0  0  0  0  0  0  0  0  0  0  0
   41.2020   36.5376   38.9989 H   0  0  0  0  0  0  0  0  0  0  0  0
   39.4714   34.1230   39.0879 H   0  0  0  0  0  0  0  0  0  0  0  0
   41.6685   33.0014   39.8120 H   0  0  0  0  0  0  0  0  0  0  0  0
   42.3941   36.3082   38.1772 H   0  0  0  0  0  0  0  0  0  0  0  0
   40.4619   35.9395   37.3787 H   0  0  0  0  0  0  0  0  0  0  0  0
   45.9510   34.4447   40.0104 H   0  0  0  0  0  0  0  0  0  0  0  0
   45.4923   34.4524   44.9309 H   0  0  0  0  0  0  0  0  0  0  0  0
   48.0553   34.0984   40.4544 H   0  0  0  0  0  0  0  0  0  0  0  0
   49.6633   36.4558   40.6943 H   0  0  0  0  0  0  0  0  0  0  0  0
   48.8083   37.0380   41.8433 H   0  0  0  0  0  0  0  0  0  0  0  0
   49.3774   34.5822   43.2646 H   0  0  0  0  0  0  0  0  0  0  0  0
   50.4356   34.1324   42.2124 H   0  0  0  0  0  0  0  0  0  0  0  0
   41.0147   31.5896   39.3213 H   0  0  0  0  0  0  0  0  0  0  0  0
   40.8490   29.3556   37.4243 H   0  0  0  0  0  0  0  0  0  0  0  0
   41.3068   30.2293   36.2251 H   0  0  0  0  0  0  0  0  0  0  0  0
   39.1111   31.8941   36.8121 H   0  0  0  0  0  0  0  0  0  0  0  0
   38.5227   30.8707   37.8366 H   0  0  0  0  0  0  0  0  0  0  0  0
  1  6  1  0
  1  2  1  0
  2  3  1  0
  2  9  1  0
  4  3  1  0
  5  6  1  0
  5  4  1  0
  7  1  1  0
  8  5  1  0
  9 10  1  0
 10 15  1  0
 11 10  2  0
 11 12  1  0
 12 13  2  0
 13 14  1  0
 15 14  2  0
 16 17  1  0
 16 12  1  0
 16 18  1  0
 17 18  1  0
 19 20  1  0
 19  6  1  0
 21 22  1  0
 21 20  1  0
 22 20  1  0
  1 23  1  6
  2 24  1  6
  4 25  1  0
  4 26  1  0
  5 27  1  1
  6 28  1  1
  7 29  1  0
  8 30  1  0
 11 31  1  0
 14 32  1  0
 16 33  1  0
 17 34  1  0
 17 35  1  0
 18 36  1  0
 18 37  1  0
 20 38  1  0
 21 39  1  0
 21 40  1  0
 22 41  1  0
 22 42  1  0
M  ISO  8  23  13  24  13  25  13  26  13  27  13  28  13  29   3  30   3
M  ISO  8  31  14  32  14  33  13  34  13  35  13  36  13  37  13  38  13
M  ISO  4  39  13  40  13  41  13  42  13
M  END
>  <minimizedAffinity>  (1) 
-5.7984972

>  <minimizedRMSD>  (1) 
0.652703226

$$$$
