
     RDKit          3D

 32 34  0  0  0  0  0  0  0  0999 V2000
   44.6730   33.3140   41.1060 Cl  0  0  0  0  0  0  0  0  0  0  0  0
   46.2270   34.0350   40.9250 C   0  0  0  0  0  0  0  0  0  0  0  0
   46.7950   34.7210   41.9650 C   0  0  0  0  0  0  0  0  0  0  0  0
   48.0620   35.3280   41.8700 C   0  0  0  0  0  0  0  0  0  0  0  0
   48.6880   35.1810   40.6570 C   0  0  0  0  0  0  0  0  0  0  0  0
   48.1380   34.5060   39.6230 C   0  0  0  0  0  0  0  0  0  0  0  0
   46.8840   33.9130   39.7370 C   0  0  0  0  0  0  0  0  0  0  0  0
   45.5500   34.0150   45.3750 C   0  0  0  0  0  0  0  0  0  0  0  0
   44.6910   35.0890   45.6050 C   0  0  0  0  0  0  0  0  0  0  0  0
   44.5380   36.0480   44.6040 C   0  0  0  0  0  0  0  0  0  0  0  0
   45.2310   35.8930   43.4520 N   0  0  0  0  0  0  0  0  0  0  0  0
   46.0670   34.8380   43.2380 C   0  0  0  0  0  0  0  0  0  0  0  0
   46.2090   33.9210   44.2050 N   0  0  0  0  0  0  0  0  0  0  0  0
   46.4370   33.2240   38.5290 C   0  0  0  0  0  0  0  0  0  0  0  0
   47.2800   33.1420   37.4420 C   0  0  0  0  0  0  0  0  0  0  0  0
   46.2900   32.2020   36.1940 S   0  0  0  0  0  0  0  0  0  0  0  0
   44.8440   32.0860   37.4350 C   0  0  0  0  0  0  0  0  0  0  0  0
   45.2960   32.6360   38.2980 N   0  0  0  0  0  0  0  0  0  0  0  0
   43.5370   31.4130   37.1760 C   0  0  0  0  0  0  0  0  0  0  0  0
   42.4770   32.0320   38.0630 C   0  0  0  0  0  0  0  0  0  0  0  0
   48.5167   35.8794   42.7062 H   0  0  0  0  0  0  0  0  0  0  0  0
   49.6816   35.6327   40.5204 H   0  0  0  0  0  0  0  0  0  0  0  0
   48.6908   34.4240   38.6755 H   0  0  0  0  0  0  0  0  0  0  0  0
   45.6890   33.2455   46.1487 H   0  0  0  0  0  0  0  0  0  0  0  0
   44.1454   35.1780   46.5560 H   0  0  0  0  0  0  0  0  0  0  0  0
   43.8698   36.9100   44.7475 H   0  0  0  0  0  0  0  0  0  0  0  0
   48.3000   33.5410   37.3405 H   0  0  0  0  0  0  0  0  0  0  0  0
   43.2573   31.5453   36.1204 H   0  0  0  0  0  0  0  0  0  0  0  0
   43.6232   30.3386   37.3958 H   0  0  0  0  0  0  0  0  0  0  0  0
   42.7449   31.8756   39.1183 H   0  0  0  0  0  0  0  0  0  0  0  0
   42.4110   33.1106   37.8575 H   0  0  0  0  0  0  0  0  0  0  0  0
   41.5052   31.5594   37.8575 H   0  0  0  0  0  0  0  0  0  0  0  0
  2  1  1  0
  2  3  2  0
  3 12  1  0
  4  3  1  0
  5  4  2  0
  6  7  2  0
  6  5  1  0
  7  2  1  0
  8  9  2  0
 10  9  1  0
 11 10  2  0
 12 11  1  0
 12 13  2  0
 13  8  1  0
 14  7  1  0
 15 14  2  0
 16 17  1  0
 16 15  1  0
 17 18  2  0
 18 14  1  0
 19 17  1  0
 19 20  1  0
  4 21  1  0
  5 22  1  0
  6 23  1  0
  8 24  1  0
  9 25  1  0
 10 26  1  0
 15 27  1  0
 19 28  1  0
 19 29  1  0
 20 30  1  0
 20 31  1  0
 20 32  1  0
M  ISO  8  21  14  22  14  23  14  24  14  25  14  26  14  27  14  28   8
M  ISO  4  29   8  30   8  31   8  32   8
M  END
>  <minimizedAffinity>  (1) 
-5.53798485

>  <minimizedRMSD>  (1) 
1.24071455

$$$$
