
     RDKit          3D

 52 55  0  0  1  0  0  0  0  0999 V2000
   42.8240   34.3610   38.9580 C   0  0  1  0  0  0  0  0  0  0  0  0
   43.0450   35.1880   40.2200 C   0  0  1  0  0  0  0  0  0  0  0  0
   41.7940   35.6210   40.6870 O   0  0  0  0  0  0  0  0  0  0  0  0
   40.9120   35.9310   39.6480 C   0  0  0  0  0  0  0  0  0  0  0  0
   40.4690   34.6920   38.8960 C   0  0  2  0  0  0  0  0  0  0  0  0
   41.5600   33.5940   39.1740 C   0  0  1  0  0  0  0  0  0  0  0  0
   42.7200   35.1910   37.8330 O   0  0  0  0  0  0  0  0  0  0  0  0
   40.5260   34.9310   37.5320 O   0  0  0  0  0  0  0  0  0  0  0  0
   43.4640   34.2640   41.1910 O   0  0  0  0  0  0  0  0  0  0  0  0
   44.6120   34.3400   41.8770 C   0  0  0  0  0  0  0  0  0  0  0  0
   45.8430   34.4860   41.2210 C   0  0  0  0  0  0  0  0  0  0  0  0
   46.9960   34.5600   41.9860 C   0  0  0  0  0  0  0  0  0  0  0  0
   46.9050   34.4890   43.3610 N   0  0  0  0  0  0  0  0  0  0  0  0
   45.6960   34.3470   43.9630 C   0  0  0  0  0  0  0  0  0  0  0  0
   44.5590   34.2730   43.2250 N   0  0  0  0  0  0  0  0  0  0  0  0
   48.3440   34.6940   41.3580 C   0  0  0  0  0  0  0  0  0  0  0  0
   49.0590   36.0330   41.5430 C   0  0  0  0  0  0  0  0  0  0  0  0
   49.5320   34.6970   42.1490 C   0  0  0  0  0  0  0  0  0  0  0  0
   41.3180   32.5700   38.3380 O   0  0  0  0  0  0  0  0  0  0  0  0
   40.3290   31.6530   38.3860 C   0  0  0  0  0  0  0  0  0  0  0  0
   39.9120   31.0090   37.3310 O   0  0  0  0  0  0  0  0  0  0  0  0
   39.3840   30.9560   39.2070 N   0  0  0  0  0  0  0  0  0  0  0  0
   38.3440   30.2690   38.5190 C   0  0  0  0  0  0  0  0  0  0  0  0
   37.8370   29.2000   39.5000 C   0  0  0  0  0  0  0  0  0  0  0  0
   37.1120   29.8830   40.6370 C   0  0  0  0  0  0  0  0  0  0  0  0
   37.9490   31.0680   41.1020 C   0  0  0  0  0  0  0  0  0  0  0  0
   39.3980   30.8920   40.6680 C   0  0  0  0  0  0  0  0  0  0  0  0
   43.6702   33.6830   38.7728 H   0  0  0  0  0  0  0  0  0  0  0  0
   43.7362   36.0236   40.0359 H   0  0  0  0  0  0  0  0  0  0  0  0
   40.0255   36.4272   40.0698 H   0  0  0  0  0  0  0  0  0  0  0  0
   41.4359   36.5907   38.9407 H   0  0  0  0  0  0  0  0  0  0  0  0
   39.4531   34.4034   39.2038 H   0  0  0  0  0  0  0  0  0  0  0  0
   41.5893   33.1210   40.1667 H   0  0  0  0  0  0  0  0  0  0  0  0
   42.6024   36.1296   38.1251 H   0  0  0  0  0  0  0  0  0  0  0  0
   40.7527   35.8814   37.3727 H   0  0  0  0  0  0  0  0  0  0  0  0
   45.8921   34.5406   40.1235 H   0  0  0  0  0  0  0  0  0  0  0  0
   45.6374   34.2914   45.0600 H   0  0  0  0  0  0  0  0  0  0  0  0
   48.0335   34.0779   40.5013 H   0  0  0  0  0  0  0  0  0  0  0  0
   49.6067   36.4978   40.7100 H   0  0  0  0  0  0  0  0  0  0  0  0
   48.8025   37.0370   41.9120 H   0  0  0  0  0  0  0  0  0  0  0  0
   49.4637   34.5370   43.2352 H   0  0  0  0  0  0  0  0  0  0  0  0
   50.4754   34.1322   42.1176 H   0  0  0  0  0  0  0  0  0  0  0  0
   37.5332   30.9641   38.2555 H   0  0  0  0  0  0  0  0  0  0  0  0
   38.7024   29.8228   37.5796 H   0  0  0  0  0  0  0  0  0  0  0  0
   37.1483   28.5182   38.9796 H   0  0  0  0  0  0  0  0  0  0  0  0
   38.6865   28.6223   39.8933 H   0  0  0  0  0  0  0  0  0  0  0  0
   36.1291   30.2359   40.2915 H   0  0  0  0  0  0  0  0  0  0  0  0
   36.9641   29.1771   41.4676 H   0  0  0  0  0  0  0  0  0  0  0  0
   37.5473   31.9919   40.6605 H   0  0  0  0  0  0  0  0  0  0  0  0
   37.9081   31.1272   42.1996 H   0  0  0  0  0  0  0  0  0  0  0  0
   39.7840   29.9188   41.0056 H   0  0  0  0  0  0  0  0  0  0  0  0
   40.0487   31.6654   41.1021 H   0  0  0  0  0  0  0  0  0  0  0  0
  1  6  1  0
  1  2  1  0
  2  3  1  0
  2  9  1  0
  4  3  1  0
  5  6  1  0
  5  4  1  0
  7  1  1  0
  8  5  1  0
  9 10  1  0
 10 15  1  0
 11 10  2  0
 11 12  1  0
 12 13  2  0
 13 14  1  0
 15 14  2  0
 16 17  1  0
 16 12  1  0
 16 18  1  0
 17 18  1  0
 19 20  1  0
 19  6  1  0
 20 22  1  0
 21 20  2  0
 22 27  1  0
 23 22  1  0
 23 24  1  0
 24 25  1  0
 25 26  1  0
 27 26  1  0
  1 28  1  6
  2 29  1  6
  4 30  1  0
  4 31  1  0
  5 32  1  1
  6 33  1  1
  7 34  1  0
  8 35  1  0
 11 36  1  0
 14 37  1  0
 16 38  1  0
 17 39  1  0
 17 40  1  0
 18 41  1  0
 18 42  1  0
 23 43  1  0
 23 44  1  0
 24 45  1  0
 24 46  1  0
 25 47  1  0
 25 48  1  0
 26 49  1  0
 26 50  1  0
 27 51  1  0
 27 52  1  0
M  ISO  8  28  13  29  13  30  13  31  13  32  13  33  13  34   3  35   3
M  ISO  8  36  14  37  14  38  13  39  13  40  13  41  13  42  13  43  13
M  ISO  8  44  13  45  13  46  13  47  13  48  13  49  13  50  13  51  13
M  ISO  1  52  13
M  END
>  <minimizedAffinity>  (1) 
-6.7298913

>  <minimizedRMSD>  (1) 
1.71540463

$$$$
