
     RDKit          3D

 28 30  0  0  0  0  0  0  0  0999 V2000
   44.8360   33.1680   41.0980 Cl  0  0  0  0  0  0  0  0  0  0  0  0
   46.3440   33.9660   40.8950 C   0  0  0  0  0  0  0  0  0  0  0  0
   46.8630   34.7360   41.9140 C   0  0  0  0  0  0  0  0  0  0  0  0
   48.0890   35.4070   41.7950 C   0  0  0  0  0  0  0  0  0  0  0  0
   48.7390   35.2470   40.5990 C   0  0  0  0  0  0  0  0  0  0  0  0
   48.2320   34.4900   39.5950 C   0  0  0  0  0  0  0  0  0  0  0  0
   47.0300   33.8350   39.7140 C   0  0  0  0  0  0  0  0  0  0  0  0
   45.5960   34.0560   45.3170 C   0  0  0  0  0  0  0  0  0  0  0  0
   44.7100   35.1140   45.5150 C   0  0  0  0  0  0  0  0  0  0  0  0
   44.5440   36.0470   44.5040 C   0  0  0  0  0  0  0  0  0  0  0  0
   45.2540   35.8950   43.3580 N   0  0  0  0  0  0  0  0  0  0  0  0
   46.1140   34.8650   43.1700 C   0  0  0  0  0  0  0  0  0  0  0  0
   46.2670   33.9670   44.1550 N   0  0  0  0  0  0  0  0  0  0  0  0
   46.6250   33.0630   38.5410 C   0  0  0  0  0  0  0  0  0  0  0  0
   46.8800   33.5800   37.2820 C   0  0  0  0  0  0  0  0  0  0  0  0
   46.2060   32.2830   36.1430 S   0  0  0  0  0  0  0  0  0  0  0  0
   45.6820   31.2340   37.6470 C   0  0  0  0  0  0  0  0  0  0  0  0
   46.0330   31.9090   38.4720 N   0  0  0  0  0  0  0  0  0  0  0  0
   45.0320   29.9660   37.5670 N   0  0  0  0  0  0  0  0  0  0  0  0
   48.5019   36.0216   42.6085 H   0  0  0  0  0  0  0  0  0  0  0  0
   49.7055   35.7502   40.4485 H   0  0  0  0  0  0  0  0  0  0  0  0
   48.7997   34.3974   38.6574 H   0  0  0  0  0  0  0  0  0  0  0  0
   45.7447   33.3015   46.1035 H   0  0  0  0  0  0  0  0  0  0  0  0
   44.1518   35.2066   46.4583 H   0  0  0  0  0  0  0  0  0  0  0  0
   43.8515   36.8926   44.6280 H   0  0  0  0  0  0  0  0  0  0  0  0
   47.3658   34.5317   37.0208 H   0  0  0  0  0  0  0  0  0  0  0  0
   44.7808   29.4608   38.4287 H   0  0  0  0  0  0  0  0  0  0  0  0
   44.8141   29.5561   36.6476 H   0  0  0  0  0  0  0  0  0  0  0  0
  2  1  1  0
  2  3  2  0
  3 12  1  0
  4  3  1  0
  5  4  2  0
  6  7  2  0
  6  5  1  0
  7  2  1  0
  8  9  2  0
 10  9  1  0
 11 10  2  0
 12 11  1  0
 12 13  2  0
 13  8  1  0
 14  7  1  0
 15 14  2  0
 16 15  1  0
 16 17  1  0
 17 18  2  0
 18 14  1  0
 19 17  1  0
  4 20  1  0
  5 21  1  0
  6 22  1  0
  8 23  1  0
  9 24  1  0
 10 25  1  0
 15 26  1  0
 19 27  1  0
 19 28  1  0
M  ISO  7  20  14  21  14  22  14  23  14  24  14  25  14  26  14
M  END
>  <minimizedAffinity>  (1) 
-5.50964832

>  <minimizedRMSD>  (1) 
0.00981949456

$$$$
