
     RDKit          3D

 39 41  0  0  1  0  0  0  0  0999 V2000
   42.8220   34.4980   38.7650 C   0  0  1  0  0  0  0  0  0  0  0  0
   42.9530   35.1790   40.1190 C   0  0  1  0  0  0  0  0  0  0  0  0
   41.6630   35.3970   40.6340 O   0  0  0  0  0  0  0  0  0  0  0  0
   40.7360   35.7210   39.6400 C   0  0  0  0  0  0  0  0  0  0  0  0
   40.4410   34.5430   38.7350 C   0  0  2  0  0  0  0  0  0  0  0  0
   41.6630   33.5610   38.8740 C   0  0  1  0  0  0  0  0  0  0  0  0
   42.6010   35.4470   37.7550 O   0  0  0  0  0  0  0  0  0  0  0  0
   40.4530   34.9560   37.4120 O   0  0  0  0  0  0  0  0  0  0  0  0
   43.4940   34.1980   40.9700 O   0  0  0  0  0  0  0  0  0  0  0  0
   44.6030   34.3450   41.7050 C   0  0  0  0  0  0  0  0  0  0  0  0
   45.8620   34.4460   41.0990 C   0  0  0  0  0  0  0  0  0  0  0  0
   46.9760   34.5990   41.9070 C   0  0  0  0  0  0  0  0  0  0  0  0
   46.8160   34.6480   43.2790 N   0  0  0  0  0  0  0  0  0  0  0  0
   45.5830   34.5470   43.8300 C   0  0  0  0  0  0  0  0  0  0  0  0
   44.4820   34.3980   43.0480 N   0  0  0  0  0  0  0  0  0  0  0  0
   48.3540   34.6940   41.3330 C   0  0  0  0  0  0  0  0  0  0  0  0
   49.0810   36.0250   41.5050 C   0  0  0  0  0  0  0  0  0  0  0  0
   49.5040   34.7040   42.1800 C   0  0  0  0  0  0  0  0  0  0  0  0
   41.5400   32.6280   37.9140 O   0  0  0  0  0  0  0  0  0  0  0  0
   40.8670   31.4550   37.9610 C   0  0  0  0  0  0  0  0  0  0  0  0
   39.6630   31.3180   37.4710 O   0  0  0  0  0  0  0  0  0  0  0  0
   40.8950   30.0770   38.3710 N   0  0  0  0  0  0  0  0  0  0  0  0
   43.7429   33.9577   38.5004 H   0  0  0  0  0  0  0  0  0  0  0  0
   43.5348   36.1094   40.0427 H   0  0  0  0  0  0  0  0  0  0  0  0
   39.8000   36.0443   40.1189 H   0  0  0  0  0  0  0  0  0  0  0  0
   41.1652   36.5246   39.0235 H   0  0  0  0  0  0  0  0  0  0  0  0
   39.4717   34.0960   39.0008 H   0  0  0  0  0  0  0  0  0  0  0  0
   41.7605   32.9728   39.7984 H   0  0  0  0  0  0  0  0  0  0  0  0
   42.3967   36.3244   38.1656 H   0  0  0  0  0  0  0  0  0  0  0  0
   40.4817   35.9449   37.3753 H   0  0  0  0  0  0  0  0  0  0  0  0
   45.9634   34.4046   40.0045 H   0  0  0  0  0  0  0  0  0  0  0  0
   45.4716   34.5861   44.9236 H   0  0  0  0  0  0  0  0  0  0  0  0
   48.0725   34.0568   40.4817 H   0  0  0  0  0  0  0  0  0  0  0  0
   49.6747   36.4515   40.6831 H   0  0  0  0  0  0  0  0  0  0  0  0
   48.8241   37.0452   41.8264 H   0  0  0  0  0  0  0  0  0  0  0  0
   49.3820   34.5834   43.2665 H   0  0  0  0  0  0  0  0  0  0  0  0
   50.4378   34.1237   42.2136 H   0  0  0  0  0  0  0  0  0  0  0  0
   40.0817   29.4703   38.1937 H   0  0  0  0  0  0  0  0  0  0  0  0
   41.7283   29.6966   38.8420 H   0  0  0  0  0  0  0  0  0  0  0  0
  1  6  1  0
  1  2  1  0
  2  3  1  0
  2  9  1  0
  4  3  1  0
  5  6  1  0
  5  4  1  0
  7  1  1  0
  8  5  1  0
  9 10  1  0
 10 15  1  0
 11 10  2  0
 11 12  1  0
 12 13  2  0
 13 14  1  0
 15 14  2  0
 16 17  1  0
 16 12  1  0
 16 18  1  0
 17 18  1  0
 19 20  1  0
 19  6  1  0
 20 22  1  0
 21 20  2  0
  1 23  1  6
  2 24  1  6
  4 25  1  0
  4 26  1  0
  5 27  1  1
  6 28  1  1
  7 29  1  0
  8 30  1  0
 11 31  1  0
 14 32  1  0
 16 33  1  0
 17 34  1  0
 17 35  1  0
 18 36  1  0
 18 37  1  0
 22 38  1  0
 22 39  1  0
M  ISO  8  23  13  24  13  25  13  26  13  27  13  28  13  29   3  30   3
M  ISO  7  31  14  32  14  33  13  34  13  35  13  36  13  37  13
M  END
>  <minimizedAffinity>  (1) 
-5.70316601

>  <minimizedRMSD>  (1) 
0.0443415381

$$$$
