
     RDKit          3D

 23 24  0  0  0  0  0  0  0  0999 V2000
   44.4380   36.0130   44.8310 C   0  0  0  0  0  0  0  0  0  0  0  0
   45.1140   35.9610   43.5800 C   0  0  0  0  0  0  0  0  0  0  0  0
   45.9930   34.9100   43.3760 C   0  0  0  0  0  0  0  0  0  0  0  0
   46.1580   33.9970   44.3710 N   0  0  0  0  0  0  0  0  0  0  0  0
   45.5070   34.0740   45.5340 C   0  0  0  0  0  0  0  0  0  0  0  0
   44.6480   35.0800   45.7660 N   0  0  0  0  0  0  0  0  0  0  0  0
   44.6500   33.2480   41.3580 Cl  0  0  0  0  0  0  0  0  0  0  0  0
   46.2090   34.0070   41.1060 C   0  0  0  0  0  0  0  0  0  0  0  0
   46.7360   34.7640   42.1300 C   0  0  0  0  0  0  0  0  0  0  0  0
   47.9620   35.3360   41.8780 C   0  0  0  0  0  0  0  0  0  0  0  0
   48.6440   35.1810   40.6890 C   0  0  0  0  0  0  0  0  0  0  0  0
   48.0790   34.4050   39.6710 C   0  0  0  0  0  0  0  0  0  0  0  0
   46.8500   33.8190   39.8980 C   0  0  0  0  0  0  0  0  0  0  0  0
   45.8410   32.9700   46.4690 C   0  0  0  0  0  0  0  0  0  0  0  0
   44.9970   32.9460   47.5600 F   0  0  0  0  0  0  0  0  0  0  0  0
   47.1440   33.0770   46.9110 F   0  0  0  0  0  0  0  0  0  0  0  0
   45.7700   31.7480   45.7860 F   0  0  0  0  0  0  0  0  0  0  0  0
   43.7324   36.8325   45.0321 H   0  0  0  0  0  0  0  0  0  0  0  0
   44.9454   36.7245   42.8062 H   0  0  0  0  0  0  0  0  0  0  0  0
   48.4226   35.9493   42.6665 H   0  0  0  0  0  0  0  0  0  0  0  0
   49.6221   35.6626   40.5427 H   0  0  0  0  0  0  0  0  0  0  0  0
   48.6015   34.2653   38.7131 H   0  0  0  0  0  0  0  0  0  0  0  0
   46.3816   33.2025   39.1166 H   0  0  0  0  0  0  0  0  0  0  0  0
  1  6  2  0
  2  1  1  0
  3  2  2  0
  3  4  1  0
  4  5  2  0
  5  6  1  0
  5 14  1  0
  8  7  1  0
  8  9  2  0
  9  3  1  0
 10  9  1  0
 11 10  2  0
 12 13  2  0
 12 11  1  0
 13  8  1  0
 14 16  1  0
 14 15  1  0
 17 14  1  0
  1 18  1  0
  2 19  1  0
 10 20  1  0
 11 21  1  0
 12 22  1  0
 13 23  1  0
M  ISO  6  18  14  19  14  20  14  21  14  22  14  23  14
M  END
>  <minimizedAffinity>  (1) 
-6.05254555

>  <minimizedRMSD>  (1) 
1.29464698

$$$$
