
     RDKit          3D

 20 21  0  0  0  0  0  0  0  0999 V2000
   44.5510   36.0870   44.3180 C   0  0  0  0  0  0  0  0  0  0  0  0
   45.3620   36.0360   43.1730 C   0  0  0  0  0  0  0  0  0  0  0  0
   46.2930   35.0090   43.0840 C   0  0  0  0  0  0  0  0  0  0  0  0
   46.3840   34.1100   44.0880 N   0  0  0  0  0  0  0  0  0  0  0  0
   45.5900   34.1870   45.1780 C   0  0  0  0  0  0  0  0  0  0  0  0
   44.6690   35.1780   45.2950 N   0  0  0  0  0  0  0  0  0  0  0  0
   47.1480   34.9190   41.9220 C   0  0  0  0  0  0  0  0  0  0  0  0
   46.9000   34.1900   40.7740 C   0  0  0  0  0  0  0  0  0  0  0  0
   47.9730   34.3760   39.9020 C   0  0  0  0  0  0  0  0  0  0  0  0
   48.8240   35.2060   40.5500 N   0  0  0  0  0  0  0  0  0  0  0  0
   48.3270   35.5280   41.7560 N   0  0  0  0  0  0  0  0  0  0  0  0
   45.8360   33.1120   46.1750 C   0  0  0  0  0  0  0  0  0  0  0  0
   44.9840   33.2060   47.2510 F   0  0  0  0  0  0  0  0  0  0  0  0
   47.1600   33.1890   46.6370 F   0  0  0  0  0  0  0  0  0  0  0  0
   45.7200   31.8780   45.5660 F   0  0  0  0  0  0  0  0  0  0  0  0
   43.8043   36.8889   44.4147 H   0  0  0  0  0  0  0  0  0  0  0  0
   45.2634   36.7845   42.3730 H   0  0  0  0  0  0  0  0  0  0  0  0
   46.0113   33.5710   40.5815 H   0  0  0  0  0  0  0  0  0  0  0  0
   48.1006   33.9405   38.9000 H   0  0  0  0  0  0  0  0  0  0  0  0
   49.7219   35.5418   40.1732 H   0  0  0  0  0  0  0  0  0  0  0  0
  1  6  2  0
  2  1  1  0
  3  2  2  0
  3  4  1  0
  4  5  2  0
  5  6  1  0
  5 12  1  0
  7  3  1  0
  8  7  1  0
  9 10  1  0
  9  8  2  0
 10 11  1  0
 11  7  2  0
 12 14  1  0
 12 13  1  0
 15 12  1  0
  1 16  1  0
  2 17  1  0
  8 18  1  0
  9 19  1  0
 10 20  1  0
M  ISO  5  16  14  17  14  18  14  19  14  20   9
M  END
>  <minimizedAffinity>  (1) 
-5.4278121

>  <minimizedRMSD>  (1) 
0.697960615

$$$$
