
     RDKit          3D

 20 21  0  0  0  0  0  0  0  0999 V2000
   44.5490   36.0920   44.3890 C   0  0  0  0  0  0  0  0  0  0  0  0
   45.3070   36.0410   43.2100 C   0  0  0  0  0  0  0  0  0  0  0  0
   46.2140   34.9940   43.0910 C   0  0  0  0  0  0  0  0  0  0  0  0
   46.3180   34.0920   44.1000 N   0  0  0  0  0  0  0  0  0  0  0  0
   45.5700   34.1760   45.2220 C   0  0  0  0  0  0  0  0  0  0  0  0
   44.6820   35.1810   45.3650 N   0  0  0  0  0  0  0  0  0  0  0  0
   47.0620   34.8340   41.9040 C   0  0  0  0  0  0  0  0  0  0  0  0
   48.3400   35.3660   41.8100 C   0  0  0  0  0  0  0  0  0  0  0  0
   48.8140   35.0260   40.5970 N   0  0  0  0  0  0  0  0  0  0  0  0
   47.8970   34.3090   39.9260 C   0  0  0  0  0  0  0  0  0  0  0  0
   46.8370   34.2020   40.7390 N   0  0  0  0  0  0  0  0  0  0  0  0
   45.8320   33.0950   46.2050 C   0  0  0  0  0  0  0  0  0  0  0  0
   44.9990   33.1580   47.2820 F   0  0  0  0  0  0  0  0  0  0  0  0
   47.1560   33.1670   46.6460 F   0  0  0  0  0  0  0  0  0  0  0  0
   45.7430   31.8570   45.5610 F   0  0  0  0  0  0  0  0  0  0  0  0
   43.8209   36.9064   44.5178 H   0  0  0  0  0  0  0  0  0  0  0  0
   45.1894   36.7940   42.4168 H   0  0  0  0  0  0  0  0  0  0  0  0
   48.8646   35.9525   42.5786 H   0  0  0  0  0  0  0  0  0  0  0  0
   49.7448   35.2788   40.2355 H   0  0  0  0  0  0  0  0  0  0  0  0
   47.9964   33.8932   38.9125 H   0  0  0  0  0  0  0  0  0  0  0  0
  1  6  2  0
  2  1  1  0
  3  2  2  0
  3  4  1  0
  4  5  2  0
  5  6  1  0
  5 12  1  0
  7  3  1  0
  8  7  2  0
  9  8  1  0
 10  9  1  0
 10 11  2  0
 11  7  1  0
 12 14  1  0
 12 13  1  0
 15 12  1  0
  1 16  1  0
  2 17  1  0
  8 18  1  0
  9 19  1  0
 10 20  1  0
M  ISO  5  16  14  17  14  18  14  19   9  20  14
M  END
>  <minimizedAffinity>  (1) 
-5.32315922

>  <minimizedRMSD>  (1) 
0.517529845

$$$$
