
     RDKit          3D

 20 21  0  0  0  0  0  0  0  0999 V2000
   44.7100   35.8750   44.2500 C   0  0  0  0  0  0  0  0  0  0  0  0
   45.5720   35.7140   43.1530 C   0  0  0  0  0  0  0  0  0  0  0  0
   46.4880   34.6520   43.2240 C   0  0  0  0  0  0  0  0  0  0  0  0
   46.5010   33.8460   44.3190 N   0  0  0  0  0  0  0  0  0  0  0  0
   45.6420   34.0530   45.3460 C   0  0  0  0  0  0  0  0  0  0  0  0
   44.7540   35.0620   45.3060 N   0  0  0  0  0  0  0  0  0  0  0  0
   45.8070   33.0670   46.4580 C   0  0  0  0  0  0  0  0  0  0  0  0
   44.9260   33.2990   47.4770 F   0  0  0  0  0  0  0  0  0  0  0  0
   47.1180   33.1400   46.9500 F   0  0  0  0  0  0  0  0  0  0  0  0
   45.6760   31.7830   45.9610 F   0  0  0  0  0  0  0  0  0  0  0  0
   47.4590   34.3850   42.1080 C   0  0  0  0  0  0  0  0  0  0  0  0
   48.3920   35.5030   41.7030 C   0  0  0  0  0  0  0  0  0  0  0  0
   48.9120   34.3490   42.5490 C   0  0  0  0  0  0  0  0  0  0  0  0
   43.9774   36.6955   44.2377 H   0  0  0  0  0  0  0  0  0  0  0  0
   45.5317   36.3855   42.2827 H   0  0  0  0  0  0  0  0  0  0  0  0
   46.7777   33.7289   41.5465 H   0  0  0  0  0  0  0  0  0  0  0  0
   48.7086   35.6021   40.6542 H   0  0  0  0  0  0  0  0  0  0  0  0
   48.3826   36.5983   41.8040 H   0  0  0  0  0  0  0  0  0  0  0  0
   49.1716   34.5132   43.6052 H   0  0  0  0  0  0  0  0  0  0  0  0
   49.7365   33.6263   42.4604 H   0  0  0  0  0  0  0  0  0  0  0  0
  1  6  2  0
  2  3  2  0
  2  1  1  0
  3  4  1  0
  4  5  2  0
  5  7  1  0
  6  5  1  0
  7  9  1  0
  7  8  1  0
 10  7  1  0
 11 13  1  0
 11  3  1  0
 12 11  1  0
 12 13  1  0
  1 14  1  0
  2 15  1  0
 11 16  1  0
 12 17  1  0
 12 18  1  0
 13 19  1  0
 13 20  1  0
M  ISO  7  14  14  15  14  16  13  17  13  18  13  19  13  20  13
M  END
>  <minimizedAffinity>  (1) 
-4.79075909

>  <minimizedRMSD>  (1) 
0.373537719

$$$$
