
     RDKit          3D

 17 17  0  0  0  0  0  0  0  0999 V2000
   44.4850   36.1390   44.6150 C   0  0  0  0  0  0  0  0  0  0  0  0
   45.1560   36.0780   43.3790 C   0  0  0  0  0  0  0  0  0  0  0  0
   46.0150   35.0050   43.1750 C   0  0  0  0  0  0  0  0  0  0  0  0
   46.1640   34.0760   44.1670 N   0  0  0  0  0  0  0  0  0  0  0  0
   45.5050   34.1700   45.3330 C   0  0  0  0  0  0  0  0  0  0  0  0
   44.6660   35.2030   45.5530 N   0  0  0  0  0  0  0  0  0  0  0  0
   45.9300   34.1990   40.9700 C   0  0  0  0  0  0  0  0  0  0  0  0
   44.7260   33.9110   41.2350 O   0  0  0  0  0  0  0  0  0  0  0  0
   46.7680   34.8140   41.9600 N   0  0  0  0  0  0  0  0  0  0  0  0
   45.7930   33.0700   46.2900 C   0  0  0  0  0  0  0  0  0  0  0  0
   44.9710   33.0990   47.3750 F   0  0  0  0  0  0  0  0  0  0  0  0
   47.1240   33.1620   46.7210 F   0  0  0  0  0  0  0  0  0  0  0  0
   45.7200   31.8510   45.6070 F   0  0  0  0  0  0  0  0  0  0  0  0
   43.7972   36.9742   44.8135 H   0  0  0  0  0  0  0  0  0  0  0  0
   45.0066   36.8474   42.6072 H   0  0  0  0  0  0  0  0  0  0  0  0
   46.3374   33.9761   39.9728 H   0  0  0  0  0  0  0  0  0  0  0  0
   47.7542   35.0780   41.8237 H   0  0  0  0  0  0  0  0  0  0  0  0
  1  6  2  0
  2  1  1  0
  3  2  2  0
  3  4  1  0
  4  5  2  0
  5  6  1  0
  5 10  1  0
  7  8  2  0
  7  9  1  0
  9  3  1  0
 10 12  1  0
 10 11  1  0
 13 10  1  0
  1 14  1  0
  2 15  1  0
  7 16  1  0
  9 17  1  0
M  ISO  3  14  14  15  14  16   6
M  END
>  <minimizedAffinity>  (1) 
-4.29446411

>  <minimizedRMSD>  (1) 
0.259598821

$$$$
