
     RDKit          3D

 15 15  0  0  0  0  0  0  0  0999 V2000
   44.5300   36.0250   44.5310 C   0  0  0  0  0  0  0  0  0  0  0  0
   45.2670   35.8970   43.3180 C   0  0  0  0  0  0  0  0  0  0  0  0
   46.1420   34.8240   43.2230 C   0  0  0  0  0  0  0  0  0  0  0  0
   46.2640   33.9500   44.2610 N   0  0  0  0  0  0  0  0  0  0  0  0
   45.5400   34.1140   45.3960 C   0  0  0  0  0  0  0  0  0  0  0  0
   44.6780   35.1510   45.5220 N   0  0  0  0  0  0  0  0  0  0  0  0
   45.7990   33.0660   46.4290 C   0  0  0  0  0  0  0  0  0  0  0  0
   44.9680   33.1860   47.5010 F   0  0  0  0  0  0  0  0  0  0  0  0
   47.1230   33.1560   46.8510 F   0  0  0  0  0  0  0  0  0  0  0  0
   45.6830   31.8110   45.8250 F   0  0  0  0  0  0  0  0  0  0  0  0
   46.9430   34.5810   42.0550 N   0  0  0  0  0  0  0  0  0  0  0  0
   43.8260   36.8619   44.6495 H   0  0  0  0  0  0  0  0  0  0  0  0
   45.1477   36.6162   42.4943 H   0  0  0  0  0  0  0  0  0  0  0  0
   47.5800   33.7721   42.0265 H   0  0  0  0  0  0  0  0  0  0  0  0
   46.8802   35.2157   41.2463 H   0  0  0  0  0  0  0  0  0  0  0  0
  1  6  2  0
  2  1  1  0
  3  2  2  0
  3  4  1  0
  4  5  2  0
  5  6  1  0
  5  7  1  0
  7  9  1  0
  7  8  1  0
 10  7  1  0
 11  3  1  0
  1 12  1  0
  2 13  1  0
 11 14  1  0
 11 15  1  0
M  ISO  2  12  14  13  14
M  END
>  <minimizedAffinity>  (1) 
-4.09439945

>  <minimizedRMSD>  (1) 
0.0839494243

$$$$
