
     RDKit          3D

 43 46  0  0  0  0  0  0  0  0999 V2000
   46.7570   34.8620   41.9580 C   0  0  0  0  0  0  0  0  0  0  0  0
   48.0430   35.4290   41.9730 C   0  0  0  0  0  0  0  0  0  0  0  0
   48.9510   35.3600   40.9370 C   0  0  0  0  0  0  0  0  0  0  0  0
   48.6060   34.6920   39.7850 C   0  0  0  0  0  0  0  0  0  0  0  0
   47.3520   34.1160   39.7180 C   0  0  0  0  0  0  0  0  0  0  0  0
   46.9650   33.4540   38.5960 C   0  0  0  0  0  0  0  0  0  0  0  0
   45.7260   32.8690   38.4740 C   0  0  0  0  0  0  0  0  0  0  0  0
   44.8530   32.9820   39.5720 C   0  0  0  0  0  0  0  0  0  0  0  0
   45.2980   33.6670   40.6890 C   0  0  0  0  0  0  0  0  0  0  0  0
   46.5140   34.2320   40.7910 C   0  0  0  0  0  0  0  0  0  0  0  0
   44.1540   33.5810   41.5350 N   0  0  0  0  0  0  0  0  0  0  0  0
   42.9140   34.3030   41.8050 C   0  0  0  0  0  0  0  0  0  0  0  0
   41.7000   33.5120   41.4090 C   0  0  0  0  0  0  0  0  0  0  0  0
   41.8750   32.1020   41.3740 N   0  0  0  0  0  0  0  0  0  0  0  0
   42.9640   31.5130   42.0220 C   0  0  0  0  0  0  0  0  0  0  0  0
   44.1070   32.3960   42.4200 C   0  0  0  0  0  0  0  0  0  0  0  0
   44.4130   36.1590   44.5720 C   0  0  0  0  0  0  0  0  0  0  0  0
   45.0940   36.1100   43.3580 C   0  0  0  0  0  0  0  0  0  0  0  0
   45.9950   35.0530   43.1360 C   0  0  0  0  0  0  0  0  0  0  0  0
   46.1120   34.1670   44.1620 N   0  0  0  0  0  0  0  0  0  0  0  0
   45.4630   34.2200   45.3070 C   0  0  0  0  0  0  0  0  0  0  0  0
   44.6110   35.2270   45.4990 N   0  0  0  0  0  0  0  0  0  0  0  0
   45.7720   33.1050   46.2530 C   0  0  0  0  0  0  0  0  0  0  0  0
   44.9360   33.1120   47.3360 F   0  0  0  0  0  0  0  0  0  0  0  0
   47.0990   33.1840   46.6400 F   0  0  0  0  0  0  0  0  0  0  0  0
   45.6900   31.8850   45.5500 F   0  0  0  0  0  0  0  0  0  0  0  0
   48.3489   35.9694   42.8809 H   0  0  0  0  0  0  0  0  0  0  0  0
   49.9394   35.8336   41.0309 H   0  0  0  0  0  0  0  0  0  0  0  0
   49.3083   34.6186   38.9415 H   0  0  0  0  0  0  0  0  0  0  0  0
   47.6690   33.3833   37.7537 H   0  0  0  0  0  0  0  0  0  0  0  0
   45.4305   32.3361   37.5582 H   0  0  0  0  0  0  0  0  0  0  0  0
   43.8466   32.5389   39.5432 H   0  0  0  0  0  0  0  0  0  0  0  0
   42.8586   34.5220   42.8816 H   0  0  0  0  0  0  0  0  0  0  0  0
   42.9244   35.2274   41.2088 H   0  0  0  0  0  0  0  0  0  0  0  0
   40.8991   33.7367   42.1288 H   0  0  0  0  0  0  0  0  0  0  0  0
   41.4653   33.8136   40.3775 H   0  0  0  0  0  0  0  0  0  0  0  0
   41.0261   31.6876   41.7845 H   0  0  0  0  0  0  0  0  0  0  0  0
   42.5822   31.0391   42.9383 H   0  0  0  0  0  0  0  0  0  0  0  0
   43.3922   30.8296   41.2739 H   0  0  0  0  0  0  0  0  0  0  0  0
   45.0496   31.8360   42.3314 H   0  0  0  0  0  0  0  0  0  0  0  0
   43.9684   32.7241   43.4607 H   0  0  0  0  0  0  0  0  0  0  0  0
   43.7040   36.9774   44.7657 H   0  0  0  0  0  0  0  0  0  0  0  0
   44.9309   36.8806   42.5901 H   0  0  0  0  0  0  0  0  0  0  0  0
  1  2  2  0
  1 19  1  0
  3  2  1  0
  4  3  2  0
  5  4  1  0
  5 10  2  0
  6  5  1  0
  7  6  2  0
  7  8  1  0
  8  9  2  0
  9 10  1  0
  9 11  1  0
 10  1  1  0
 11 12  1  0
 11 16  1  0
 13 12  1  0
 14 13  1  0
 14 15  1  0
 15 16  1  0
 17 22  2  0
 18 17  1  0
 19 18  2  0
 19 20  1  0
 20 21  2  0
 21 22  1  0
 21 23  1  0
 23 25  1  0
 23 24  1  0
 26 23  1  0
  2 27  1  0
  3 28  1  0
  4 29  1  0
  6 30  1  0
  7 31  1  0
  8 32  1  0
 12 33  1  0
 12 34  1  0
 13 35  1  0
 13 36  1  0
 14 37  1  0
 15 38  1  0
 15 39  1  0
 16 40  1  0
 16 41  1  0
 17 42  1  0
 18 43  1  0
M  ISO  8  27  14  28  14  29  14  30  14  31  14  32  14  33  13  34  13
M  ISO  8  35  13  36  13  37   5  38  13  39  13  40  13  41  13  42  14
M  ISO  1  43  14
M  END
>  <minimizedAffinity>  (1) 
-7.09455395

>  <minimizedRMSD>  (1) 
1.49384272

$$$$
