
     RDKit          3D

 36 39  0  0  0  0  0  0  0  0999 V2000
   46.7320   34.8400   42.0340 C   0  0  0  0  0  0  0  0  0  0  0  0
   47.9800   35.4540   42.0190 C   0  0  0  0  0  0  0  0  0  0  0  0
   48.8650   35.4110   40.9600 C   0  0  0  0  0  0  0  0  0  0  0  0
   48.5190   34.7220   39.8220 C   0  0  0  0  0  0  0  0  0  0  0  0
   47.2860   34.0990   39.7930 C   0  0  0  0  0  0  0  0  0  0  0  0
   46.8850   33.4520   38.6680 C   0  0  0  0  0  0  0  0  0  0  0  0
   45.6420   32.8610   38.5730 C   0  0  0  0  0  0  0  0  0  0  0  0
   44.8090   32.9500   39.6890 C   0  0  0  0  0  0  0  0  0  0  0  0
   45.2320   33.6030   40.8170 C   0  0  0  0  0  0  0  0  0  0  0  0
   46.4510   34.1750   40.8760 C   0  0  0  0  0  0  0  0  0  0  0  0
   44.4240   36.1180   44.6990 C   0  0  0  0  0  0  0  0  0  0  0  0
   45.0850   36.0800   43.4820 C   0  0  0  0  0  0  0  0  0  0  0  0
   45.9890   35.0200   43.2190 C   0  0  0  0  0  0  0  0  0  0  0  0
   46.1070   34.1430   44.2390 N   0  0  0  0  0  0  0  0  0  0  0  0
   45.4760   34.1840   45.3930 C   0  0  0  0  0  0  0  0  0  0  0  0
   44.6280   35.1870   45.6090 N   0  0  0  0  0  0  0  0  0  0  0  0
   45.7880   33.0520   46.3150 C   0  0  0  0  0  0  0  0  0  0  0  0
   44.9470   33.0200   47.3920 F   0  0  0  0  0  0  0  0  0  0  0  0
   47.1150   33.1260   46.7060 F   0  0  0  0  0  0  0  0  0  0  0  0
   45.7210   31.8430   45.5900 F   0  0  0  0  0  0  0  0  0  0  0  0
   44.1810   33.5690   41.8920 C   0  0  0  0  0  0  0  0  0  0  0  0
   42.9800   32.7980   41.5970 C   0  0  0  0  0  0  0  0  0  0  0  0
   42.8020   34.2110   41.5110 C   0  0  0  0  0  0  0  0  0  0  0  0
   48.2839   36.0143   42.9155 H   0  0  0  0  0  0  0  0  0  0  0  0
   49.8365   35.9226   41.0263 H   0  0  0  0  0  0  0  0  0  0  0  0
   49.2022   34.6683   38.9615 H   0  0  0  0  0  0  0  0  0  0  0  0
   47.5701   33.3978   37.8091 H   0  0  0  0  0  0  0  0  0  0  0  0
   45.3215   32.3423   37.6575 H   0  0  0  0  0  0  0  0  0  0  0  0
   43.8083   32.4939   39.6631 H   0  0  0  0  0  0  0  0  0  0  0  0
   43.7194   36.9363   44.9085 H   0  0  0  0  0  0  0  0  0  0  0  0
   44.9106   36.8627   42.7290 H   0  0  0  0  0  0  0  0  0  0  0  0
   44.8996   33.6384   42.7219 H   0  0  0  0  0  0  0  0  0  0  0  0
   42.9441   32.1991   40.6750 H   0  0  0  0  0  0  0  0  0  0  0  0
   42.4451   32.0157   42.1555 H   0  0  0  0  0  0  0  0  0  0  0  0
   42.6661   34.6952   40.5327 H   0  0  0  0  0  0  0  0  0  0  0  0
   42.1238   34.9501   41.9624 H   0  0  0  0  0  0  0  0  0  0  0  0
  1 13  1  0
  2  1  2  0
  3  2  1  0
  4  3  2  0
  5  4  1  0
  5 10  2  0
  6  5  1  0
  7  6  2  0
  7  8  1  0
  8  9  2  0
  9 10  1  0
  9 21  1  0
 10  1  1  0
 11 16  2  0
 12 11  1  0
 13 12  2  0
 13 14  1  0
 14 15  2  0
 15 16  1  0
 15 17  1  0
 17 19  1  0
 17 18  1  0
 20 17  1  0
 22 21  1  0
 23 22  1  0
 23 21  1  0
  2 24  1  0
  3 25  1  0
  4 26  1  0
  6 27  1  0
  7 28  1  0
  8 29  1  0
 11 30  1  0
 12 31  1  0
 21 32  1  0
 22 33  1  0
 22 34  1  0
 23 35  1  0
 23 36  1  0
M  ISO  8  24  14  25  14  26  14  27  14  28  14  29  14  30  14  31  14
M  ISO  5  32  13  33  13  34  13  35  13  36  13
M  END
>  <minimizedAffinity>  (1) 
-6.83165789

>  <minimizedRMSD>  (1) 
0.349988371

$$$$
