
     RDKit          3D

 30 32  0  0  0  0  0  0  0  0999 V2000
   46.6370   34.7830   42.1170 C   0  0  0  0  0  0  0  0  0  0  0  0
   47.8720   35.4020   42.0060 C   0  0  0  0  0  0  0  0  0  0  0  0
   48.6860   35.3210   40.9120 C   0  0  0  0  0  0  0  0  0  0  0  0
   48.3010   34.5860   39.8160 C   0  0  0  0  0  0  0  0  0  0  0  0
   47.0800   33.9470   39.8690 C   0  0  0  0  0  0  0  0  0  0  0  0
   46.6310   33.2070   38.8040 C   0  0  0  0  0  0  0  0  0  0  0  0
   45.4170   32.5590   38.8030 C   0  0  0  0  0  0  0  0  0  0  0  0
   44.6420   32.6840   39.9480 C   0  0  0  0  0  0  0  0  0  0  0  0
   45.1050   33.4280   41.0030 C   0  0  0  0  0  0  0  0  0  0  0  0
   46.3110   34.0670   40.9920 C   0  0  0  0  0  0  0  0  0  0  0  0
   44.4240   36.0630   44.8760 C   0  0  0  0  0  0  0  0  0  0  0  0
   45.0580   36.0260   43.6300 C   0  0  0  0  0  0  0  0  0  0  0  0
   45.9230   34.9810   43.3460 C   0  0  0  0  0  0  0  0  0  0  0  0
   46.0840   34.0580   44.3370 N   0  0  0  0  0  0  0  0  0  0  0  0
   45.4810   34.0980   45.5160 C   0  0  0  0  0  0  0  0  0  0  0  0
   44.6530   35.1090   45.7710 N   0  0  0  0  0  0  0  0  0  0  0  0
   45.8120   32.9750   46.4330 C   0  0  0  0  0  0  0  0  0  0  0  0
   44.9990   32.9350   47.5190 F   0  0  0  0  0  0  0  0  0  0  0  0
   47.1560   33.0580   46.8170 F   0  0  0  0  0  0  0  0  0  0  0  0
   45.7720   31.7740   45.6980 F   0  0  0  0  0  0  0  0  0  0  0  0
   44.2810   33.5250   42.1450 O   0  0  0  0  0  0  0  0  0  0  0  0
   48.2216   36.0012   42.8596 H   0  0  0  0  0  0  0  0  0  0  0  0
   49.6528   35.8457   40.9081 H   0  0  0  0  0  0  0  0  0  0  0  0
   48.9447   34.5101   38.9272 H   0  0  0  0  0  0  0  0  0  0  0  0
   47.2697   33.1284   37.9119 H   0  0  0  0  0  0  0  0  0  0  0  0
   45.0774   31.9710   37.9376 H   0  0  0  0  0  0  0  0  0  0  0  0
   43.6616   32.1889   40.0088 H   0  0  0  0  0  0  0  0  0  0  0  0
   43.7334   36.8850   45.1155 H   0  0  0  0  0  0  0  0  0  0  0  0
   44.8728   36.8149   42.8861 H   0  0  0  0  0  0  0  0  0  0  0  0
   44.5796   34.0529   42.9275 H   0  0  0  0  0  0  0  0  0  0  0  0
  1 13  1  0
  2  1  2  0
  3  2  1  0
  4  5  1  0
  4  3  2  0
  5 10  2  0
  6  5  1  0
  7  6  2  0
  7  8  1  0
  8  9  2  0
  9 21  1  0
 10  9  1  0
 10  1  1  0
 11 16  2  0
 12 11  1  0
 13 12  2  0
 13 14  1  0
 14 15  2  0
 15 16  1  0
 15 17  1  0
 17 19  1  0
 17 18  1  0
 20 17  1  0
  2 22  1  0
  3 23  1  0
  4 24  1  0
  6 25  1  0
  7 26  1  0
  8 27  1  0
 11 28  1  0
 12 29  1  0
 21 30  1  0
M  ISO  8  22  14  23  14  24  14  25  14  26  14  27  14  28  14  29  14
M  ISO  1  30   3
M  END
>  <minimizedAffinity>  (1) 
-6.71944523

>  <minimizedRMSD>  (1) 
0.133411765

$$$$
