
     RDKit          3D

 35 37  0  0  0  0  0  0  0  0999 V2000
   46.7120   34.8240   42.0820 C   0  0  0  0  0  0  0  0  0  0  0  0
   47.9550   35.4350   42.0740 C   0  0  0  0  0  0  0  0  0  0  0  0
   48.8370   35.4010   41.0040 C   0  0  0  0  0  0  0  0  0  0  0  0
   48.4900   34.7260   39.8610 C   0  0  0  0  0  0  0  0  0  0  0  0
   47.2530   34.1040   39.8350 C   0  0  0  0  0  0  0  0  0  0  0  0
   46.8480   33.4610   38.7090 C   0  0  0  0  0  0  0  0  0  0  0  0
   45.6110   32.8650   38.6120 C   0  0  0  0  0  0  0  0  0  0  0  0
   44.7940   32.9480   39.7240 C   0  0  0  0  0  0  0  0  0  0  0  0
   45.2070   33.5950   40.8630 C   0  0  0  0  0  0  0  0  0  0  0  0
   46.4280   34.1740   40.9230 C   0  0  0  0  0  0  0  0  0  0  0  0
   44.4100   36.0970   44.7580 C   0  0  0  0  0  0  0  0  0  0  0  0
   45.0620   36.0540   43.5340 C   0  0  0  0  0  0  0  0  0  0  0  0
   45.9750   34.9980   43.2690 C   0  0  0  0  0  0  0  0  0  0  0  0
   46.1060   34.1330   44.2960 N   0  0  0  0  0  0  0  0  0  0  0  0
   45.4850   34.1770   45.4510 C   0  0  0  0  0  0  0  0  0  0  0  0
   44.6320   35.1720   45.6710 N   0  0  0  0  0  0  0  0  0  0  0  0
   45.7940   33.0340   46.3660 C   0  0  0  0  0  0  0  0  0  0  0  0
   44.9440   32.9890   47.4360 F   0  0  0  0  0  0  0  0  0  0  0  0
   47.1140   33.1080   46.7660 F   0  0  0  0  0  0  0  0  0  0  0  0
   45.7250   31.8300   45.6200 F   0  0  0  0  0  0  0  0  0  0  0  0
   44.1980   33.5810   41.9530 C   0  0  0  0  0  0  0  0  0  0  0  0
   42.7990   34.0080   41.3880 C   0  0  0  0  0  0  0  0  0  0  0  0
   48.2632   35.9837   42.9762 H   0  0  0  0  0  0  0  0  0  0  0  0
   49.8087   35.9121   41.0714 H   0  0  0  0  0  0  0  0  0  0  0  0
   49.1694   34.6806   38.9971 H   0  0  0  0  0  0  0  0  0  0  0  0
   47.5302   33.4151   37.8473 H   0  0  0  0  0  0  0  0  0  0  0  0
   45.2888   32.3487   37.6957 H   0  0  0  0  0  0  0  0  0  0  0  0
   43.7953   32.4877   39.6962 H   0  0  0  0  0  0  0  0  0  0  0  0
   43.7008   36.9110   44.9688 H   0  0  0  0  0  0  0  0  0  0  0  0
   44.8741   36.8293   42.7767 H   0  0  0  0  0  0  0  0  0  0  0  0
   44.1281   32.5666   42.3728 H   0  0  0  0  0  0  0  0  0  0  0  0
   44.5030   34.2875   42.7390 H   0  0  0  0  0  0  0  0  0  0  0  0
   42.1145   34.2169   42.2233 H   0  0  0  0  0  0  0  0  0  0  0  0
   42.9128   34.9123   40.7722 H   0  0  0  0  0  0  0  0  0  0  0  0
   42.3884   33.1943   40.7722 H   0  0  0  0  0  0  0  0  0  0  0  0
  1 13  1  0
  2  1  2  0
  3  2  1  0
  4  3  2  0
  5  4  1  0
  5 10  2  0
  6  5  1  0
  7  6  2  0
  7  8  1  0
  8  9  2  0
  9 10  1  0
  9 21  1  0
 10  1  1  0
 11 16  2  0
 12 11  1  0
 13 12  2  0
 13 14  1  0
 14 15  2  0
 15 16  1  0
 15 17  1  0
 17 19  1  0
 17 18  1  0
 20 17  1  0
 22 21  1  0
  2 23  1  0
  3 24  1  0
  4 25  1  0
  6 26  1  0
  7 27  1  0
  8 28  1  0
 11 29  1  0
 12 30  1  0
 21 31  1  0
 21 32  1  0
 22 33  1  0
 22 34  1  0
 22 35  1  0
M  ISO  8  23  14  24  14  25  14  26  14  27  14  28  14  29  14  30  14
M  ISO  5  31   8  32   8  33   8  34   8  35   8
M  END
>  <minimizedAffinity>  (1) 
-6.67966413

>  <minimizedRMSD>  (1) 
0.280180782

$$$$
