
     RDKit          3D

 33 35  0  0  0  0  0  0  0  0999 V2000
   46.8150   34.9110   42.0150 C   0  0  0  0  0  0  0  0  0  0  0  0
   48.0520   35.5780   41.9980 C   0  0  0  0  0  0  0  0  0  0  0  0
   48.9410   35.5450   40.9440 C   0  0  0  0  0  0  0  0  0  0  0  0
   48.6360   34.8240   39.8190 C   0  0  0  0  0  0  0  0  0  0  0  0
   47.4350   34.1520   39.7840 C   0  0  0  0  0  0  0  0  0  0  0  0
   47.0840   33.4350   38.6830 C   0  0  0  0  0  0  0  0  0  0  0  0
   45.8840   32.7540   38.5930 C   0  0  0  0  0  0  0  0  0  0  0  0
   45.0140   32.8260   39.7010 C   0  0  0  0  0  0  0  0  0  0  0  0
   45.4260   33.5690   40.7890 C   0  0  0  0  0  0  0  0  0  0  0  0
   46.6020   34.2310   40.8650 C   0  0  0  0  0  0  0  0  0  0  0  0
   44.4470   36.0950   44.6770 C   0  0  0  0  0  0  0  0  0  0  0  0
   45.1360   36.0940   43.4660 C   0  0  0  0  0  0  0  0  0  0  0  0
   46.0400   35.0680   43.1980 C   0  0  0  0  0  0  0  0  0  0  0  0
   46.1660   34.1340   44.1900 N   0  0  0  0  0  0  0  0  0  0  0  0
   45.5040   34.1490   45.3360 C   0  0  0  0  0  0  0  0  0  0  0  0
   44.6480   35.1370   45.5640 N   0  0  0  0  0  0  0  0  0  0  0  0
   45.8240   33.0000   46.2460 C   0  0  0  0  0  0  0  0  0  0  0  0
   44.9980   32.9760   47.3330 F   0  0  0  0  0  0  0  0  0  0  0  0
   47.1540   33.0540   46.6300 F   0  0  0  0  0  0  0  0  0  0  0  0
   45.7250   31.8040   45.4990 F   0  0  0  0  0  0  0  0  0  0  0  0
   43.0120   33.9210   41.8370 C   0  0  0  0  0  0  0  0  0  0  0  0
   42.6970   34.5410   40.7640 O   0  0  0  0  0  0  0  0  0  0  0  0
   44.3660   33.4900   41.7420 N   0  0  0  0  0  0  0  0  0  0  0  0
   48.3299   36.1660   42.8851 H   0  0  0  0  0  0  0  0  0  0  0  0
   49.8914   36.0954   41.0061 H   0  0  0  0  0  0  0  0  0  0  0  0
   49.3315   34.7834   38.9677 H   0  0  0  0  0  0  0  0  0  0  0  0
   47.7805   33.3954   37.8326 H   0  0  0  0  0  0  0  0  0  0  0  0
   45.6185   32.1792   37.6935 H   0  0  0  0  0  0  0  0  0  0  0  0
   44.0430   32.3091   39.6982 H   0  0  0  0  0  0  0  0  0  0  0  0
   43.7300   36.8999   44.8962 H   0  0  0  0  0  0  0  0  0  0  0  0
   44.9683   36.8940   42.7299 H   0  0  0  0  0  0  0  0  0  0  0  0
   42.3451   33.7485   42.6946 H   0  0  0  0  0  0  0  0  0  0  0  0
   44.6600   32.9847   42.5901 H   0  0  0  0  0  0  0  0  0  0  0  0
  1 13  1  0
  2  1  2  0
  3  2  1  0
  4  3  2  0
  5  4  1  0
  5 10  2  0
  6  5  1  0
  7  6  2  0
  7  8  1  0
  8  9  2  0
  9 10  1  0
  9 23  1  0
 10  1  1  0
 11 16  2  0
 12 11  1  0
 13 12  2  0
 13 14  1  0
 14 15  2  0
 15 16  1  0
 15 17  1  0
 17 19  1  0
 17 18  1  0
 20 17  1  0
 22 21  2  0
 23 21  1  0
  2 24  1  0
  3 25  1  0
  4 26  1  0
  6 27  1  0
  7 28  1  0
  8 29  1  0
 11 30  1  0
 12 31  1  0
 21 32  1  0
 23 33  1  0
M  ISO  8  24  14  25  14  26  14  27  14  28  14  29  14  30  14  31  14
M  ISO  1  32   6
M  END
>  <minimizedAffinity>  (1) 
-6.57544327

>  <minimizedRMSD>  (1) 
0.453348964

$$$$
