
     RDKit          3D

 35 37  0  0  0  0  0  0  0  0999 V2000
   46.5630   34.6810   42.4280 C   0  0  0  0  0  0  0  0  0  0  0  0
   47.7990   35.3050   42.3150 C   0  0  0  0  0  0  0  0  0  0  0  0
   48.5820   35.2920   41.1830 C   0  0  0  0  0  0  0  0  0  0  0  0
   48.1570   34.6330   40.0670 C   0  0  0  0  0  0  0  0  0  0  0  0
   46.9410   33.9960   40.1200 C   0  0  0  0  0  0  0  0  0  0  0  0
   46.4590   33.3150   39.0300 C   0  0  0  0  0  0  0  0  0  0  0  0
   45.2590   32.6630   39.0230 C   0  0  0  0  0  0  0  0  0  0  0  0
   44.5150   32.7160   40.2070 C   0  0  0  0  0  0  0  0  0  0  0  0
   45.0260   33.4100   41.2870 C   0  0  0  0  0  0  0  0  0  0  0  0
   46.2100   34.0450   41.2750 C   0  0  0  0  0  0  0  0  0  0  0  0
   44.4620   35.8070   45.3320 C   0  0  0  0  0  0  0  0  0  0  0  0
   45.0460   35.8350   44.0750 C   0  0  0  0  0  0  0  0  0  0  0  0
   45.8930   34.8010   43.6800 C   0  0  0  0  0  0  0  0  0  0  0  0
   46.0680   33.8190   44.6150 N   0  0  0  0  0  0  0  0  0  0  0  0
   45.5040   33.8090   45.8040 C   0  0  0  0  0  0  0  0  0  0  0  0
   44.7100   34.8010   46.1490 N   0  0  0  0  0  0  0  0  0  0  0  0
   45.0220   38.2810   43.1890 C   0  0  0  0  0  0  0  0  0  0  0  0
   45.3870   38.8850   44.2250 O   0  0  0  0  0  0  0  0  0  0  0  0
   44.8590   36.8570   43.1100 N   0  0  0  0  0  0  0  0  0  0  0  0
   45.8630   32.6080   46.6390 C   0  0  0  0  0  0  0  0  0  0  0  0
   45.0310   32.4700   47.7200 F   0  0  0  0  0  0  0  0  0  0  0  0
   47.1860   32.6690   47.0190 F   0  0  0  0  0  0  0  0  0  0  0  0
   45.7820   31.4560   45.8120 F   0  0  0  0  0  0  0  0  0  0  0  0
   44.1370   33.3650   42.4050 N   0  0  0  0  0  0  0  0  0  0  0  0
   48.1791   35.8482   43.1927 H   0  0  0  0  0  0  0  0  0  0  0  0
   49.5507   35.8132   41.1784 H   0  0  0  0  0  0  0  0  0  0  0  0
   48.7688   34.6122   39.1531 H   0  0  0  0  0  0  0  0  0  0  0  0
   47.0703   33.2933   38.1158 H   0  0  0  0  0  0  0  0  0  0  0  0
   44.8968   32.1251   38.1345 H   0  0  0  0  0  0  0  0  0  0  0  0
   43.5391   32.2133   40.2768 H   0  0  0  0  0  0  0  0  0  0  0  0
   43.7934   36.6215   45.6475 H   0  0  0  0  0  0  0  0  0  0  0  0
   44.8145   38.8769   42.2880 H   0  0  0  0  0  0  0  0  0  0  0  0
   44.5513   36.5169   42.1878 H   0  0  0  0  0  0  0  0  0  0  0  0
   44.3890   33.8412   43.2829 H   0  0  0  0  0  0  0  0  0  0  0  0
   43.2442   32.8564   42.3329 H   0  0  0  0  0  0  0  0  0  0  0  0
  1 13  1  0
  2  1  2  0
  3  2  1  0
  4  5  1  0
  4  3  2  0
  5 10  2  0
  6  5  1  0
  7  6  2  0
  7  8  1  0
  8  9  2  0
  9 24  1  0
 10  9  1  0
 10  1  1  0
 11 16  2  0
 12 11  1  0
 13 12  2  0
 13 14  1  0
 14 15  2  0
 15 16  1  0
 15 20  1  0
 17 18  2  0
 19 17  1  0
 19 12  1  0
 20 22  1  0
 20 21  1  0
 23 20  1  0
  2 25  1  0
  3 26  1  0
  4 27  1  0
  6 28  1  0
  7 29  1  0
  8 30  1  0
 11 31  1  0
 17 32  1  0
 19 33  1  0
 24 34  1  0
 24 35  1  0
M  ISO  8  25  14  26  14  27  14  28  14  29  14  30  14  31  14  32   6
M  END
>  <minimizedAffinity>  (1) 
-6.50850821

>  <minimizedRMSD>  (1) 
0.556317508

$$$$
