
     RDKit          3D

 33 35  0  0  0  0  0  0  0  0999 V2000
   46.7820   34.5120   42.2990 C   0  0  0  0  0  0  0  0  0  0  0  0
   47.9290   35.2840   42.1600 C   0  0  0  0  0  0  0  0  0  0  0  0
   48.6600   35.3910   40.9920 C   0  0  0  0  0  0  0  0  0  0  0  0
   48.2660   34.7160   39.8810 C   0  0  0  0  0  0  0  0  0  0  0  0
   47.1420   33.9400   39.9570 C   0  0  0  0  0  0  0  0  0  0  0  0
   46.6800   33.2290   38.8740 C   0  0  0  0  0  0  0  0  0  0  0  0
   45.5630   32.4410   38.8940 C   0  0  0  0  0  0  0  0  0  0  0  0
   44.8800   32.3800   40.1030 C   0  0  0  0  0  0  0  0  0  0  0  0
   45.3570   33.1010   41.1830 C   0  0  0  0  0  0  0  0  0  0  0  0
   46.4580   33.8690   41.1360 C   0  0  0  0  0  0  0  0  0  0  0  0
   44.6860   35.2840   45.3190 C   0  0  0  0  0  0  0  0  0  0  0  0
   45.2040   35.4170   44.0350 C   0  0  0  0  0  0  0  0  0  0  0  0
   46.1580   34.5210   43.5820 C   0  0  0  0  0  0  0  0  0  0  0  0
   46.5180   33.5500   44.4770 N   0  0  0  0  0  0  0  0  0  0  0  0
   46.0150   33.4370   45.7000 C   0  0  0  0  0  0  0  0  0  0  0  0
   45.1010   34.3120   46.1020 N   0  0  0  0  0  0  0  0  0  0  0  0
   46.5680   32.2930   46.4890 C   0  0  0  0  0  0  0  0  0  0  0  0
   45.5800   31.4990   47.0050 F   0  0  0  0  0  0  0  0  0  0  0  0
   47.4060   32.7600   47.4840 F   0  0  0  0  0  0  0  0  0  0  0  0
   47.4320   31.5490   45.6490 F   0  0  0  0  0  0  0  0  0  0  0  0
   44.7940   36.4550   43.1290 C   0  0  0  0  0  0  0  0  0  0  0  0
   45.2100   37.6230   43.3270 O   0  0  0  0  0  0  0  0  0  0  0  0
   44.5320   32.9160   42.3330 N   0  0  0  0  0  0  0  0  0  0  0  0
   48.2783   35.8473   43.0378 H   0  0  0  0  0  0  0  0  0  0  0  0
   49.5603   36.0224   40.9621 H   0  0  0  0  0  0  0  0  0  0  0  0
   48.8365   34.7915   38.9436 H   0  0  0  0  0  0  0  0  0  0  0  0
   47.2448   33.2988   37.9326 H   0  0  0  0  0  0  0  0  0  0  0  0
   45.2247   31.8878   38.0055 H   0  0  0  0  0  0  0  0  0  0  0  0
   43.9721   31.7665   40.1998 H   0  0  0  0  0  0  0  0  0  0  0  0
   43.9272   35.9936   45.6806 H   0  0  0  0  0  0  0  0  0  0  0  0
   44.1304   36.2309   42.2808 H   0  0  0  0  0  0  0  0  0  0  0  0
   44.7646   33.3929   43.2158 H   0  0  0  0  0  0  0  0  0  0  0  0
   43.7041   32.3056   42.2801 H   0  0  0  0  0  0  0  0  0  0  0  0
  1 13  1  0
  2  1  2  0
  3  2  1  0
  4  5  1  0
  4  3  2  0
  5 10  2  0
  6  7  2  0
  6  5  1  0
  7  8  1  0
  8  9  2  0
  9 23  1  0
 10  9  1  0
 10  1  1  0
 11 16  2  0
 12 11  1  0
 13 12  2  0
 13 14  1  0
 14 15  2  0
 15 16  1  0
 15 17  1  0
 17 18  1  0
 17 19  1  0
 20 17  1  0
 21 22  2  0
 21 12  1  0
  2 24  1  0
  3 25  1  0
  4 26  1  0
  6 27  1  0
  7 28  1  0
  8 29  1  0
 11 30  1  0
 21 31  1  0
 23 32  1  0
 23 33  1  0
M  ISO  8  24  14  25  14  26  14  27  14  28  14  29  14  30  14  31   6
M  END
>  <minimizedAffinity>  (1) 
-6.41892719

>  <minimizedRMSD>  (1) 
0.760943115

$$$$
