
     RDKit          3D

 37 39  0  0  0  0  0  0  0  0999 V2000
   46.8600   34.4600   42.3170 C   0  0  0  0  0  0  0  0  0  0  0  0
   47.9270   35.3250   42.1380 C   0  0  0  0  0  0  0  0  0  0  0  0
   48.6700   35.4360   40.9830 C   0  0  0  0  0  0  0  0  0  0  0  0
   48.3730   34.6620   39.9070 C   0  0  0  0  0  0  0  0  0  0  0  0
   47.3220   33.7740   40.0060 C   0  0  0  0  0  0  0  0  0  0  0  0
   46.9780   32.9710   38.9630 C   0  0  0  0  0  0  0  0  0  0  0  0
   45.9340   32.0710   39.0250 C   0  0  0  0  0  0  0  0  0  0  0  0
   45.2210   32.0070   40.2260 C   0  0  0  0  0  0  0  0  0  0  0  0
   45.6010   32.8370   41.2660 C   0  0  0  0  0  0  0  0  0  0  0  0
   46.6230   33.7120   41.1910 C   0  0  0  0  0  0  0  0  0  0  0  0
   44.6640   35.2520   45.2560 C   0  0  0  0  0  0  0  0  0  0  0  0
   45.2100   35.3610   43.9840 C   0  0  0  0  0  0  0  0  0  0  0  0
   46.2180   34.4800   43.5810 C   0  0  0  0  0  0  0  0  0  0  0  0
   46.5740   33.5650   44.5250 N   0  0  0  0  0  0  0  0  0  0  0  0
   46.0500   33.4680   45.7360 C   0  0  0  0  0  0  0  0  0  0  0  0
   45.0960   34.3200   46.0820 N   0  0  0  0  0  0  0  0  0  0  0  0
   46.6280   32.3610   46.5710 C   0  0  0  0  0  0  0  0  0  0  0  0
   45.6550   31.6160   47.1530 F   0  0  0  0  0  0  0  0  0  0  0  0
   47.4930   32.8890   47.5220 F   0  0  0  0  0  0  0  0  0  0  0  0
   47.4790   31.5750   45.7560 F   0  0  0  0  0  0  0  0  0  0  0  0
   44.8120   36.3660   42.9720 C   0  0  0  0  0  0  0  0  0  0  0  0
   43.6950   35.9150   42.0830 C   0  0  0  0  0  0  0  0  0  0  0  0
   44.7800   32.6560   42.4120 N   0  0  0  0  0  0  0  0  0  0  0  0
   48.2023   35.9732   42.9830 H   0  0  0  0  0  0  0  0  0  0  0  0
   49.5039   36.1516   40.9322 H   0  0  0  0  0  0  0  0  0  0  0  0
   48.9570   34.7415   38.9782 H   0  0  0  0  0  0  0  0  0  0  0  0
   47.5569   33.0423   38.0304 H   0  0  0  0  0  0  0  0  0  0  0  0
   45.6742   31.4324   38.1679 H   0  0  0  0  0  0  0  0  0  0  0  0
   44.3763   31.3119   40.3417 H   0  0  0  0  0  0  0  0  0  0  0  0
   43.8704   35.9439   45.5746 H   0  0  0  0  0  0  0  0  0  0  0  0
   44.4919   37.2786   43.4961 H   0  0  0  0  0  0  0  0  0  0  0  0
   45.6868   36.5371   42.3275 H   0  0  0  0  0  0  0  0  0  0  0  0
   42.8504   35.5740   42.6997 H   0  0  0  0  0  0  0  0  0  0  0  0
   43.3707   36.7526   41.4480 H   0  0  0  0  0  0  0  0  0  0  0  0
   44.0432   35.0870   41.4480 H   0  0  0  0  0  0  0  0  0  0  0  0
   44.9521   33.2119   43.2618 H   0  0  0  0  0  0  0  0  0  0  0  0
   44.0129   31.9689   42.3927 H   0  0  0  0  0  0  0  0  0  0  0  0
  1 13  1  0
  2  1  2  0
  3  2  1  0
  4  5  1  0
  4  3  2  0
  5 10  2  0
  6  7  2  0
  6  5  1  0
  7  8  1  0
  8  9  2  0
  9 23  1  0
 10  9  1  0
 10  1  1  0
 11 16  2  0
 12 11  1  0
 13 12  2  0
 13 14  1  0
 14 15  2  0
 15 16  1  0
 15 17  1  0
 17 18  1  0
 17 19  1  0
 20 17  1  0
 21 12  1  0
 22 21  1  0
  2 24  1  0
  3 25  1  0
  4 26  1  0
  6 27  1  0
  7 28  1  0
  8 29  1  0
 11 30  1  0
 21 31  1  0
 21 32  1  0
 22 33  1  0
 22 34  1  0
 22 35  1  0
 23 36  1  0
 23 37  1  0
M  ISO  8  24  14  25  14  26  14  27  14  28  14  29  14  30  14  31   8
M  ISO  4  32   8  33   8  34   8  35   8
M  END
>  <minimizedAffinity>  (1) 
-6.36514235

>  <minimizedRMSD>  (1) 
0.862102807

$$$$
