
     RDKit          3D

 49 52  0  0  0  0  0  0  0  0999 V2000
   44.5870   35.1640   45.0630 C   0  0  0  0  0  0  0  0  0  0  0  0
   45.1950   35.2680   43.8110 C   0  0  0  0  0  0  0  0  0  0  0  0
   46.2810   34.4470   43.5020 C   0  0  0  0  0  0  0  0  0  0  0  0
   46.6330   33.6020   44.5070 N   0  0  0  0  0  0  0  0  0  0  0  0
   46.0580   33.5080   45.6830 C   0  0  0  0  0  0  0  0  0  0  0  0
   45.0380   34.2970   45.9420 N   0  0  0  0  0  0  0  0  0  0  0  0
   46.9980   34.4330   42.2790 C   0  0  0  0  0  0  0  0  0  0  0  0
   47.9310   35.4410   42.0910 C   0  0  0  0  0  0  0  0  0  0  0  0
   48.7170   35.5840   40.9690 C   0  0  0  0  0  0  0  0  0  0  0  0
   48.6070   34.6980   39.9430 C   0  0  0  0  0  0  0  0  0  0  0  0
   47.6940   33.6650   40.0630 C   0  0  0  0  0  0  0  0  0  0  0  0
   47.5290   32.7430   39.0740 C   0  0  0  0  0  0  0  0  0  0  0  0
   46.6370   31.7080   39.1540 C   0  0  0  0  0  0  0  0  0  0  0  0
   45.8750   31.6250   40.3170 C   0  0  0  0  0  0  0  0  0  0  0  0
   46.0670   32.5780   41.3030 C   0  0  0  0  0  0  0  0  0  0  0  0
   46.9420   33.5840   41.2130 C   0  0  0  0  0  0  0  0  0  0  0  0
   45.1960   32.3390   42.4130 N   0  0  0  0  0  0  0  0  0  0  0  0
   46.6690   32.4780   46.5900 C   0  0  0  0  0  0  0  0  0  0  0  0
   45.7080   31.7480   47.2300 F   0  0  0  0  0  0  0  0  0  0  0  0
   47.5150   33.0780   47.4990 F   0  0  0  0  0  0  0  0  0  0  0  0
   47.5230   31.6480   45.8300 F   0  0  0  0  0  0  0  0  0  0  0  0
   44.7690   36.2000   42.7580 C   0  0  0  0  0  0  0  0  0  0  0  0
   44.0140   35.5720   41.6450 C   0  0  0  0  0  0  0  0  0  0  0  0
   42.7010   35.0980   42.0260 N   0  0  0  0  0  0  0  0  0  0  0  0
   42.5230   33.8180   41.3460 C   0  0  0  0  0  0  0  0  0  0  0  0
   41.9130   34.1550   40.0060 C   0  0  0  0  0  0  0  0  0  0  0  0
   41.3010   35.5150   40.1420 C   0  0  0  0  0  0  0  0  0  0  0  0
   41.6150   35.9010   41.5680 C   0  0  0  0  0  0  0  0  0  0  0  0
   43.7308   35.8073   45.3140 H   0  0  0  0  0  0  0  0  0  0  0  0
   48.0524   36.1803   42.8964 H   0  0  0  0  0  0  0  0  0  0  0  0
   49.4342   36.4154   40.9027 H   0  0  0  0  0  0  0  0  0  0  0  0
   49.2280   34.7999   39.0408 H   0  0  0  0  0  0  0  0  0  0  0  0
   48.1431   32.8348   38.1660 H   0  0  0  0  0  0  0  0  0  0  0  0
   46.5272   30.9771   38.3393 H   0  0  0  0  0  0  0  0  0  0  0  0
   45.1370   30.8201   40.4492 H   0  0  0  0  0  0  0  0  0  0  0  0
   45.2196   32.9654   43.2303 H   0  0  0  0  0  0  0  0  0  0  0  0
   44.5455   31.5406   42.3946 H   0  0  0  0  0  0  0  0  0  0  0  0
   44.1282   36.9670   43.2174 H   0  0  0  0  0  0  0  0  0  0  0  0
   45.6881   36.6131   42.3170 H   0  0  0  0  0  0  0  0  0  0  0  0
   44.5960   34.7175   41.2695 H   0  0  0  0  0  0  0  0  0  0  0  0
   43.8655   36.3481   40.8798 H   0  0  0  0  0  0  0  0  0  0  0  0
   43.4924   33.3158   41.2118 H   0  0  0  0  0  0  0  0  0  0  0  0
   41.8851   33.1335   41.9245 H   0  0  0  0  0  0  0  0  0  0  0  0
   41.1411   33.4163   39.7442 H   0  0  0  0  0  0  0  0  0  0  0  0
   42.6725   34.1405   39.2104 H   0  0  0  0  0  0  0  0  0  0  0  0
   41.7553   36.2234   39.4336 H   0  0  0  0  0  0  0  0  0  0  0  0
   40.2231   35.5240   39.9228 H   0  0  0  0  0  0  0  0  0  0  0  0
   41.8953   36.9638   41.6115 H   0  0  0  0  0  0  0  0  0  0  0  0
   40.7327   35.7400   42.2048 H   0  0  0  0  0  0  0  0  0  0  0  0
  1  6  2  0
  2  1  1  0
  3  2  2  0
  3  4  1  0
  4  5  2  0
  5  6  1  0
  5 18  1  0
  7  3  1  0
  8  7  2  0
  9  8  1  0
 10 11  1  0
 10  9  2  0
 11 16  2  0
 12 13  2  0
 12 11  1  0
 13 14  1  0
 14 15  2  0
 15 17  1  0
 16 15  1  0
 16  7  1  0
 18 19  1  0
 18 20  1  0
 21 18  1  0
 22  2  1  0
 23 24  1  0
 23 22  1  0
 25 24  1  0
 26 27  1  0
 26 25  1  0
 27 28  1  0
 28 24  1  0
  1 29  1  0
  8 30  1  0
  9 31  1  0
 10 32  1  0
 12 33  1  0
 13 34  1  0
 14 35  1  0
 17 36  1  0
 17 37  1  0
 22 38  1  0
 22 39  1  0
 23 40  1  0
 23 41  1  0
 25 42  1  0
 25 43  1  0
 26 44  1  0
 26 45  1  0
 27 46  1  0
 27 47  1  0
 28 48  1  0
 28 49  1  0
M  ISO  8  29  14  30  14  31  14  32  14  33  14  34  14  35  14  38   8
M  ISO  8  39   8  40   8  41   8  42  13  43  13  44  13  45  13  46  13
M  ISO  3  47  13  48  13  49  13
M  END
>  <minimizedAffinity>  (1) 
-6.4369998

>  <minimizedRMSD>  (1) 
1.28118479

$$$$
