
     RDKit          3D

 50 53  0  0  0  0  0  0  0  0999 V2000
   45.0390   34.6500   44.8650 C   0  0  0  0  0  0  0  0  0  0  0  0
   45.9610   34.3880   43.8590 C   0  0  0  0  0  0  0  0  0  0  0  0
   47.0200   33.5200   44.0960 C   0  0  0  0  0  0  0  0  0  0  0  0
   47.0370   32.9970   45.3480 N   0  0  0  0  0  0  0  0  0  0  0  0
   46.1610   33.2450   46.3050 C   0  0  0  0  0  0  0  0  0  0  0  0
   45.1680   34.0730   46.0460 N   0  0  0  0  0  0  0  0  0  0  0  0
   48.0300   33.1540   43.1680 C   0  0  0  0  0  0  0  0  0  0  0  0
   49.1000   34.0220   43.0280 C   0  0  0  0  0  0  0  0  0  0  0  0
   50.1680   33.8280   42.1750 C   0  0  0  0  0  0  0  0  0  0  0  0
   50.2220   32.7230   41.3930 C   0  0  0  0  0  0  0  0  0  0  0  0
   49.1860   31.8130   41.4810 C   0  0  0  0  0  0  0  0  0  0  0  0
   49.1730   30.6750   40.7160 C   0  0  0  0  0  0  0  0  0  0  0  0
   48.1600   29.7510   40.7740 C   0  0  0  0  0  0  0  0  0  0  0  0
   47.1110   30.0110   41.6590 C   0  0  0  0  0  0  0  0  0  0  0  0
   47.1650   31.1660   42.4070 C   0  0  0  0  0  0  0  0  0  0  0  0
   48.1540   32.0630   42.3480 C   0  0  0  0  0  0  0  0  0  0  0  0
   46.0090   31.2690   43.2490 N   0  0  0  0  0  0  0  0  0  0  0  0
   46.4300   32.5190   47.5920 C   0  0  0  0  0  0  0  0  0  0  0  0
   45.5000   32.8310   48.5380 F   0  0  0  0  0  0  0  0  0  0  0  0
   47.7150   32.8070   48.0320 F   0  0  0  0  0  0  0  0  0  0  0  0
   46.4800   31.1280   47.3260 F   0  0  0  0  0  0  0  0  0  0  0  0
   45.8990   34.9820   42.5070 C   0  0  0  0  0  0  0  0  0  0  0  0
   45.0540   34.2370   41.5380 C   0  0  0  0  0  0  0  0  0  0  0  0
   44.0500   35.0920   40.9130 N   0  0  0  0  0  0  0  0  0  0  0  0
   43.4480   34.2340   39.8750 C   0  0  0  0  0  0  0  0  0  0  0  0
   42.2580   34.8630   39.2210 C   0  0  0  0  0  0  0  0  0  0  0  0
   41.4270   35.5040   40.1360 O   0  0  0  0  0  0  0  0  0  0  0  0
   41.6790   34.9920   41.4000 C   0  0  0  0  0  0  0  0  0  0  0  0
   43.0350   35.4700   41.8800 C   0  0  0  0  0  0  0  0  0  0  0  0
   44.2015   35.3381   44.6777 H   0  0  0  0  0  0  0  0  0  0  0  0
   49.0988   34.9344   43.6425 H   0  0  0  0  0  0  0  0  0  0  0  0
   50.9768   34.5722   42.1302 H   0  0  0  0  0  0  0  0  0  0  0  0
   51.0661   32.5552   40.7079 H   0  0  0  0  0  0  0  0  0  0  0  0
   50.0107   30.4950   40.0261 H   0  0  0  0  0  0  0  0  0  0  0  0
   48.1735   28.8448   40.1506 H   0  0  0  0  0  0  0  0  0  0  0  0
   46.2661   29.3133   41.7557 H   0  0  0  0  0  0  0  0  0  0  0  0
   45.8977   32.0801   43.8740 H   0  0  0  0  0  0  0  0  0  0  0  0
   45.2899   30.5319   43.2289 H   0  0  0  0  0  0  0  0  0  0  0  0
   45.4965   36.0015   42.5991 H   0  0  0  0  0  0  0  0  0  0  0  0
   46.9242   34.9549   42.1092 H   0  0  0  0  0  0  0  0  0  0  0  0
   45.7005   33.8174   40.7532 H   0  0  0  0  0  0  0  0  0  0  0  0
   44.5274   33.4435   42.0885 H   0  0  0  0  0  0  0  0  0  0  0  0
   44.2060   34.0304   39.1042 H   0  0  0  0  0  0  0  0  0  0  0  0
   43.1067   33.3106   40.3657 H   0  0  0  0  0  0  0  0  0  0  0  0
   42.6085   35.6011   38.4846 H   0  0  0  0  0  0  0  0  0  0  0  0
   41.6755   34.0619   38.7425 H   0  0  0  0  0  0  0  0  0  0  0  0
   40.9011   35.3374   42.0969 H   0  0  0  0  0  0  0  0  0  0  0  0
   41.6727   33.8928   41.3573 H   0  0  0  0  0  0  0  0  0  0  0  0
   43.2640   35.0082   42.8518 H   0  0  0  0  0  0  0  0  0  0  0  0
   43.0211   36.5645   41.9891 H   0  0  0  0  0  0  0  0  0  0  0  0
  1  6  2  0
  2  3  2  0
  2  1  1  0
  3  4  1  0
  4  5  2  0
  5 18  1  0
  6  5  1  0
  7  3  1  0
  8  7  2  0
  9  8  1  0
 10 11  1  0
 10  9  2  0
 11 16  2  0
 12 13  2  0
 12 11  1  0
 13 14  1  0
 14 15  2  0
 15 17  1  0
 16 15  1  0
 16  7  1  0
 18 20  1  0
 18 19  1  0
 21 18  1  0
 22  2  1  0
 23 22  1  0
 24 23  1  0
 24 29  1  0
 25 24  1  0
 26 25  1  0
 26 27  1  0
 27 28  1  0
 28 29  1  0
  1 30  1  0
  8 31  1  0
  9 32  1  0
 10 33  1  0
 12 34  1  0
 13 35  1  0
 14 36  1  0
 17 37  1  0
 17 38  1  0
 22 39  1  0
 22 40  1  0
 23 41  1  0
 23 42  1  0
 25 43  1  0
 25 44  1  0
 26 45  1  0
 26 46  1  0
 28 47  1  0
 28 48  1  0
 29 49  1  0
 29 50  1  0
M  ISO  8  30  14  31  14  32  14  33  14  34  14  35  14  36  14  39   8
M  ISO  8  40   8  41   8  42   8  43  13  44  13  45  13  46  13  47  13
M  ISO  3  48  13  49  13  50  13
M  END
>  <minimizedAffinity>  (1) 
-6.14644194

>  <minimizedRMSD>  (1) 
2.40949774

$$$$
