
     RDKit          3D

 42 45  0  0  1  0  0  0  0  0999 V2000
   47.0200   33.0250   38.7310 N   0  0  0  0  0  0  0  0  0  0  0  0
   46.1250   33.3130   37.6040 C   0  0  0  0  0  0  0  0  0  0  0  0
   45.3760   32.0840   37.1610 C   0  0  0  0  0  0  0  0  0  0  0  0
   46.2870   31.0870   36.6290 N   0  0  0  0  0  0  0  0  0  0  0  0
   47.6350   31.3900   37.1160 C   0  0  0  0  0  0  0  0  0  0  0  0
   47.5350   31.6740   38.6220 C   0  0  1  0  0  0  0  0  0  0  0  0
   45.1020   32.8540   41.2100 Br  0  0  0  0  0  0  0  0  0  0  0  0
   46.6550   33.9530   40.9910 C   0  0  0  0  0  0  0  0  0  0  0  0
   47.0320   34.7870   42.0030 C   0  0  0  0  0  0  0  0  0  0  0  0
   48.1560   35.6130   41.8600 C   0  0  0  0  0  0  0  0  0  0  0  0
   48.8500   35.5520   40.6790 C   0  0  0  0  0  0  0  0  0  0  0  0
   48.4300   34.6960   39.6900 C   0  0  0  0  0  0  0  0  0  0  0  0
   47.3560   33.8940   39.8090 C   0  0  0  0  0  0  0  0  0  0  0  0
   45.7750   33.9450   45.3240 C   0  0  0  0  0  0  0  0  0  0  0  0
   44.7650   34.9230   45.5580 C   0  0  0  0  0  0  0  0  0  0  0  0
   44.5500   35.8510   44.5490 C   0  0  0  0  0  0  0  0  0  0  0  0
   45.2910   35.7820   43.4240 N   0  0  0  0  0  0  0  0  0  0  0  0
   46.2600   34.8210   43.2340 C   0  0  0  0  0  0  0  0  0  0  0  0
   46.4740   33.9220   44.2010 N   0  0  0  0  0  0  0  0  0  0  0  0
   48.8930   31.5390   39.1550 C   0  0  0  0  0  0  0  0  0  0  0  0
   49.9140   31.6370   38.1940 C   0  0  0  0  0  0  0  0  0  0  0  0
   51.2670   31.5580   38.4470 C   0  0  0  0  0  0  0  0  0  0  0  0
   51.6940   31.3720   39.7080 N   0  0  0  0  0  0  0  0  0  0  0  0
   50.7330   31.2760   40.6440 C   0  0  0  0  0  0  0  0  0  0  0  0
   49.4270   31.3570   40.3600 N   0  0  0  0  0  0  0  0  0  0  0  0
   45.4001   34.0811   37.9114 H   0  0  0  0  0  0  0  0  0  0  0  0
   46.7372   33.6648   36.7605 H   0  0  0  0  0  0  0  0  0  0  0  0
   44.8396   31.6590   38.0222 H   0  0  0  0  0  0  0  0  0  0  0  0
   44.6668   32.3701   36.3703 H   0  0  0  0  0  0  0  0  0  0  0  0
   46.2736   31.1169   35.5995 H   0  0  0  0  0  0  0  0  0  0  0  0
   48.2988   30.5306   36.9402 H   0  0  0  0  0  0  0  0  0  0  0  0
   48.0490   32.2608   36.5866 H   0  0  0  0  0  0  0  0  0  0  0  0
   46.8753   30.9958   39.1831 H   0  0  0  0  0  0  0  0  0  0  0  0
   48.4709   36.2882   42.6693 H   0  0  0  0  0  0  0  0  0  0  0  0
   49.7369   36.1841   40.5245 H   0  0  0  0  0  0  0  0  0  0  0  0
   49.0020   34.6645   38.7509 H   0  0  0  0  0  0  0  0  0  0  0  0
   45.9786   33.1896   46.0973 H   0  0  0  0  0  0  0  0  0  0  0  0
   44.1846   34.9413   46.4923 H   0  0  0  0  0  0  0  0  0  0  0  0
   43.7851   36.6329   44.6651 H   0  0  0  0  0  0  0  0  0  0  0  0
   49.6068   31.7901   37.1489 H   0  0  0  0  0  0  0  0  0  0  0  0
   51.9911   31.6464   37.6237 H   0  0  0  0  0  0  0  0  0  0  0  0
   51.0338   31.1239   41.6911 H   0  0  0  0  0  0  0  0  0  0  0  0
  1 13  1  0
  2  1  1  0
  3  2  1  0
  4  5  1  0
  4  3  1  0
  5  6  1  0
  6  1  1  0
  6 20  1  0
  8  7  1  0
  8  9  2  0
  9 18  1  0
 10  9  1  0
 11 10  2  0
 12 13  2  0
 12 11  1  0
 13  8  1  0
 14 15  2  0
 16 15  1  0
 17 16  2  0
 18 17  1  0
 18 19  2  0
 19 14  1  0
 20 25  2  0
 21 22  2  0
 21 20  1  0
 22 23  1  0
 23 24  2  0
 25 24  1  0
  2 26  1  0
  2 27  1  0
  3 28  1  0
  3 29  1  0
  4 30  1  0
  5 31  1  0
  5 32  1  0
  6 33  1  1
 10 34  1  0
 11 35  1  0
 12 36  1  0
 14 37  1  0
 15 38  1  0
 16 39  1  0
 21 40  1  0
 22 41  1  0
 24 42  1  0
M  ISO  8  26  13  27  13  28  13  29  13  30   5  31  13  32  13  33  13
M  ISO  8  34  14  35  14  36  14  37  14  38  14  39  14  40  14  41  14
M  ISO  1  42  14
M  END
>  <minimizedAffinity>  (1) 
-5.88660049

>  <minimizedRMSD>  (1) 
0.788504541

$$$$
