
     RDKit          3D

 48 51  0  0  0  0  0  0  0  0999 V2000
   44.6350   35.2390   45.2240 C   0  0  0  0  0  0  0  0  0  0  0  0
   45.2030   35.3750   43.9590 C   0  0  0  0  0  0  0  0  0  0  0  0
   46.2290   34.5100   43.5780 C   0  0  0  0  0  0  0  0  0  0  0  0
   46.5690   33.5980   44.5210 N   0  0  0  0  0  0  0  0  0  0  0  0
   46.0310   33.4770   45.7040 C   0  0  0  0  0  0  0  0  0  0  0  0
   45.0670   34.3030   46.0430 N   0  0  0  0  0  0  0  0  0  0  0  0
   46.9070   34.5180   42.3320 C   0  0  0  0  0  0  0  0  0  0  0  0
   47.9520   35.4340   42.1930 C   0  0  0  0  0  0  0  0  0  0  0  0
   48.7180   35.5810   41.0580 C   0  0  0  0  0  0  0  0  0  0  0  0
   48.4800   34.8070   39.9720 C   0  0  0  0  0  0  0  0  0  0  0  0
   47.4660   33.8840   40.0390 C   0  0  0  0  0  0  0  0  0  0  0  0
   47.1710   33.0750   38.9880 C   0  0  0  0  0  0  0  0  0  0  0  0
   46.1700   32.1450   39.0100 C   0  0  0  0  0  0  0  0  0  0  0  0
   45.4230   32.0380   40.1900 C   0  0  0  0  0  0  0  0  0  0  0  0
   45.7520   32.8780   41.2390 C   0  0  0  0  0  0  0  0  0  0  0  0
   46.7250   33.7780   41.2060 C   0  0  0  0  0  0  0  0  0  0  0  0
   44.8760   32.6370   42.3500 N   0  0  0  0  0  0  0  0  0  0  0  0
   46.6110   32.3680   46.5390 C   0  0  0  0  0  0  0  0  0  0  0  0
   45.6200   31.6070   47.1150 F   0  0  0  0  0  0  0  0  0  0  0  0
   47.4520   32.8680   47.4950 F   0  0  0  0  0  0  0  0  0  0  0  0
   47.4420   31.5670   45.7230 F   0  0  0  0  0  0  0  0  0  0  0  0
   44.8100   36.3660   42.9650 C   0  0  0  0  0  0  0  0  0  0  0  0
   44.0810   35.8720   41.7870 C   0  0  0  0  0  0  0  0  0  0  0  0
   41.8220   34.8320   41.3850 C   0  0  0  0  0  0  0  0  0  0  0  0
   42.2550   34.3960   40.2590 O   0  0  0  0  0  0  0  0  0  0  0  0
   42.7010   35.5510   42.2430 N   0  0  0  0  0  0  0  0  0  0  0  0
   40.4010   34.5690   41.7600 C   0  0  0  0  0  0  0  0  0  0  0  0
   39.8430   33.2120   41.6970 C   0  0  0  0  0  0  0  0  0  0  0  0
   39.5440   34.1830   40.5620 C   0  0  0  0  0  0  0  0  0  0  0  0
   43.8253   35.9139   45.5386 H   0  0  0  0  0  0  0  0  0  0  0  0
   48.1793   36.0840   43.0508 H   0  0  0  0  0  0  0  0  0  0  0  0
   49.5247   36.3284   41.0332 H   0  0  0  0  0  0  0  0  0  0  0  0
   49.0842   34.9154   39.0592 H   0  0  0  0  0  0  0  0  0  0  0  0
   47.7698   33.1739   38.0706 H   0  0  0  0  0  0  0  0  0  0  0  0
   45.9599   31.5077   38.1384 H   0  0  0  0  0  0  0  0  0  0  0  0
   44.6026   31.3108   40.2797 H   0  0  0  0  0  0  0  0  0  0  0  0
   44.9839   33.1805   43.2183 H   0  0  0  0  0  0  0  0  0  0  0  0
   44.1394   31.9206   42.2791 H   0  0  0  0  0  0  0  0  0  0  0  0
   44.1684   37.1048   43.4675 H   0  0  0  0  0  0  0  0  0  0  0  0
   45.7550   36.7678   42.5705 H   0  0  0  0  0  0  0  0  0  0  0  0
   44.5688   34.9696   41.3900 H   0  0  0  0  0  0  0  0  0  0  0  0
   44.0681   36.6245   40.9848 H   0  0  0  0  0  0  0  0  0  0  0  0
   42.3831   35.8483   43.1765 H   0  0  0  0  0  0  0  0  0  0  0  0
   40.3943   35.3166   42.5669 H   0  0  0  0  0  0  0  0  0  0  0  0
   40.5092   32.3544   41.5217 H   0  0  0  0  0  0  0  0  0  0  0  0
   39.2254   32.6003   42.3711 H   0  0  0  0  0  0  0  0  0  0  0  0
   40.0028   34.0405   39.5725 H   0  0  0  0  0  0  0  0  0  0  0  0
   38.6397   34.5778   40.0759 H   0  0  0  0  0  0  0  0  0  0  0  0
  1  6  2  0
  2  1  1  0
  3  2  2  0
  3  4  1  0
  4  5  2  0
  5  6  1  0
  5 18  1  0
  7  3  1  0
  8  7  2  0
  9  8  1  0
 10 11  1  0
 10  9  2  0
 11 16  2  0
 12 13  2  0
 12 11  1  0
 13 14  1  0
 14 15  2  0
 15 17  1  0
 16 15  1  0
 16  7  1  0
 18 19  1  0
 18 20  1  0
 21 18  1  0
 22  2  1  0
 23 26  1  0
 23 22  1  0
 24 27  1  0
 24 26  1  0
 25 24  2  0
 28 27  1  0
 29 28  1  0
 29 27  1  0
  1 30  1  0
  8 31  1  0
  9 32  1  0
 10 33  1  0
 12 34  1  0
 13 35  1  0
 14 36  1  0
 17 37  1  0
 17 38  1  0
 22 39  1  0
 22 40  1  0
 23 41  1  0
 23 42  1  0
 26 43  1  0
 27 44  1  0
 28 45  1  0
 28 46  1  0
 29 47  1  0
 29 48  1  0
M  ISO  8  30  14  31  14  32  14  33  14  34  14  35  14  36  14  39   8
M  ISO  8  40   8  41   8  42   8  44  13  45  13  46  13  47  13  48  13
M  END
>  <minimizedAffinity>  (1) 
-7.33220053

>  <minimizedRMSD>  (1) 
0.498717427

$$$$
