
     RDKit          3D

 23 24  0  0  0  0  0  0  0  0999 V2000
   45.7010   32.3660   41.1770 Cl  0  0  0  0  0  0  0  0  0  0  0  0
   46.9300   33.5820   40.9810 C   0  0  0  0  0  0  0  0  0  0  0  0
   47.4400   34.2240   42.0760 C   0  0  0  0  0  0  0  0  0  0  0  0
   48.4310   35.2080   41.9580 C   0  0  0  0  0  0  0  0  0  0  0  0
   48.8660   35.4950   40.6860 C   0  0  0  0  0  0  0  0  0  0  0  0
   48.3480   34.8440   39.5860 C   0  0  0  0  0  0  0  0  0  0  0  0
   47.3900   33.8940   39.7200 C   0  0  0  0  0  0  0  0  0  0  0  0
   46.9900   32.5040   45.3040 C   0  0  0  0  0  0  0  0  0  0  0  0
   45.9970   33.2860   45.9310 C   0  0  0  0  0  0  0  0  0  0  0  0
   45.4980   34.3920   45.2340 C   0  0  0  0  0  0  0  0  0  0  0  0
   45.9910   34.6500   44.0050 N   0  0  0  0  0  0  0  0  0  0  0  0
   46.9490   33.8880   43.4120 C   0  0  0  0  0  0  0  0  0  0  0  0
   47.4400   32.8190   44.0680 N   0  0  0  0  0  0  0  0  0  0  0  0
   44.4450   35.2590   45.8450 C   0  0  0  0  0  0  0  0  0  0  0  0
   48.8401   35.7246   42.8388 H   0  0  0  0  0  0  0  0  0  0  0  0
   49.6435   36.2598   40.5425 H   0  0  0  0  0  0  0  0  0  0  0  0
   48.7186   35.1000   38.5824 H   0  0  0  0  0  0  0  0  0  0  0  0
   46.9860   33.3800   38.8354 H   0  0  0  0  0  0  0  0  0  0  0  0
   47.4028   31.6283   45.8262 H   0  0  0  0  0  0  0  0  0  0  0  0
   45.6269   33.0342   46.9358 H   0  0  0  0  0  0  0  0  0  0  0  0
   44.5140   35.2022   46.9414 H   0  0  0  0  0  0  0  0  0  0  0  0
   44.5939   36.2998   45.5217 H   0  0  0  0  0  0  0  0  0  0  0  0
   43.4521   34.9131   45.5217 H   0  0  0  0  0  0  0  0  0  0  0  0
  2  1  1  0
  2  3  2  0
  3 12  1  0
  4  3  1  0
  5  4  2  0
  6  7  2  0
  6  5  1  0
  7  2  1  0
  8  9  2  0
 10 14  1  0
 10  9  1  0
 11 10  2  0
 12 11  1  0
 12 13  2  0
 13  8  1  0
  4 15  1  0
  5 16  1  0
  6 17  1  0
  7 18  1  0
  8 19  1  0
  9 20  1  0
 14 21  1  0
 14 22  1  0
 14 23  1  0
M  ISO  8  15  14  16  14  17  14  18  14  19  14  20  14  21   8  22   8
M  ISO  1  23   8
M  END
>  <minimizedAffinity>  (1) 
-4.4792881

>  <minimizedRMSD>  (1) 
1.44619274

$$$$
