
     RDKit          3D

 50 55  0  0  1  0  0  0  0  0999 V2000
   47.1270   32.9140   37.7620 C   0  0  0  0  0  0  0  0  0  0  0  0
   45.9510   33.1450   37.0310 C   0  0  0  0  0  0  0  0  0  0  0  0
   45.8120   32.1680   36.0760 C   0  0  0  0  0  0  0  0  0  0  0  0
   46.9280   31.3710   36.2690 C   0  0  0  0  0  0  0  0  0  0  0  0
   47.6810   31.8320   37.2640 O   0  0  0  0  0  0  0  0  0  0  0  0
   45.8730   32.3080   40.3610 Cl  0  0  0  0  0  0  0  0  0  0  0  0
   47.0680   33.5470   40.1260 C   0  0  0  0  0  0  0  0  0  0  0  0
   47.4920   34.3180   41.1660 C   0  0  0  0  0  0  0  0  0  0  0  0
   48.4490   35.3200   41.0090 C   0  0  0  0  0  0  0  0  0  0  0  0
   48.9460   35.4870   39.7310 C   0  0  0  0  0  0  0  0  0  0  0  0
   48.5180   34.7070   38.6780 C   0  0  0  0  0  0  0  0  0  0  0  0
   47.5990   33.7550   38.8630 C   0  0  0  0  0  0  0  0  0  0  0  0
   46.7660   32.7960   44.4540 C   0  0  0  0  0  0  0  0  0  0  0  0
   45.8380   33.7060   45.0130 C   0  0  0  0  0  0  0  0  0  0  0  0
   45.4830   34.8250   44.2500 C   0  0  0  0  0  0  0  0  0  0  0  0
   46.0430   34.9770   43.0150 N   0  0  0  0  0  0  0  0  0  0  0  0
   46.9220   34.0910   42.5110 C   0  0  0  0  0  0  0  0  0  0  0  0
   47.2790   33.0090   43.2300 N   0  0  0  0  0  0  0  0  0  0  0  0
   44.5130   35.8490   44.7430 C   0  0  0  0  0  0  0  0  0  0  0  0
   44.9900   37.1120   44.5230 F   0  0  0  0  0  0  0  0  0  0  0  0
   43.3170   35.6850   44.0440 F   0  0  0  0  0  0  0  0  0  0  0  0
   44.2990   35.6060   46.0730 F   0  0  0  0  0  0  0  0  0  0  0  0
   47.3740   30.1260   35.5440 C   0  0  0  0  0  0  0  0  0  0  0  0
   46.2050   29.4380   34.9280 C   0  0  0  0  0  0  0  0  0  0  0  0
   45.9950   29.5180   33.6340 C   0  0  0  0  0  0  0  0  0  0  0  0
   44.8980   28.8700   33.0690 N   0  0  0  0  0  0  0  0  0  0  0  0
   44.2490   28.2000   32.0020 C   0  0  1  0  0  0  0  0  0  0  0  0
   44.4880   28.0220   30.7790 O   0  0  0  0  0  0  0  0  0  0  0  0
   43.1010   27.7260   32.8110 C   0  0  0  0  0  0  0  0  0  0  0  0
   43.6780   28.6910   33.8220 C   0  0  2  0  0  0  0  0  0  0  0  0
   44.1220   27.7360   35.3190 S   0  0  0  0  0  0  0  0  0  0  0  0
   45.4630   28.7540   35.9760 C   0  0  0  0  0  0  0  0  0  0  0  0
   46.8900   30.2750   32.7690 C   0  0  0  0  0  0  0  0  0  0  0  0
   47.3840   29.7720   31.7200 O   0  0  0  0  0  0  0  0  0  0  0  0
   47.6690   31.2290   32.1980 O   0  0  0  0  0  0  0  0  0  0  0  0
   45.2512   33.9773   37.1970 H   0  0  0  0  0  0  0  0  0  0  0  0
   45.0075   32.0474   35.3356 H   0  0  0  0  0  0  0  0  0  0  0  0
   48.7877   35.9401   41.8521 H   0  0  0  0  0  0  0  0  0  0  0  0
   49.7037   36.2633   39.5486 H   0  0  0  0  0  0  0  0  0  0  0  0
   48.9377   34.8702   37.6744 H   0  0  0  0  0  0  0  0  0  0  0  0
   47.0702   31.9069   45.0258 H   0  0  0  0  0  0  0  0  0  0  0  0
   45.4101   33.5401   46.0127 H   0  0  0  0  0  0  0  0  0  0  0  0
   48.0892   30.4023   34.7552 H   0  0  0  0  0  0  0  0  0  0  0  0
   47.8508   29.4447   36.2641 H   0  0  0  0  0  0  0  0  0  0  0  0
   45.2780   27.4337   30.6794 H   0  0  0  0  0  0  0  0  0  0  0  0
   42.1041   27.9803   32.4218 H   0  0  0  0  0  0  0  0  0  0  0  0
   42.8788   26.6684   33.0164 H   0  0  0  0  0  0  0  0  0  0  0  0
   46.1557   28.1078   36.5350 H   0  0  0  0  0  0  0  0  0  0  0  0
   45.0148   29.5210   36.6247 H   0  0  0  0  0  0  0  0  0  0  0  0
   48.1536   31.0343   31.3570 H   0  0  0  0  0  0  0  0  0  0  0  0
  1 12  1  0
  2  1  2  0
  3  4  2  0
  3  2  1  0
  4  5  1  0
  5  1  1  0
  7  6  1  0
  7  8  2  0
  8 17  1  0
  9  8  1  0
 10  9  2  0
 11 12  2  0
 11 10  1  0
 12  7  1  0
 13 14  2  0
 15 19  1  0
 15 14  1  0
 16 15  2  0
 17 16  1  0
 17 18  2  0
 18 13  1  0
 19 22  1  0
 20 19  1  0
 21 19  1  0
 23  4  1  0
 24 23  1  0
 24 32  1  0
 25 24  2  0
 26 25  1  0
 26 30  1  0
 27 28  1  6
 27 29  1  0
 27 26  1  0
 27 30  1  0
 30 29  1  0
 30 31  1  6
 31 32  1  0
 33 25  1  0
 34 33  2  0
 35 33  1  0
  2 36  1  0
  3 37  1  0
  9 38  1  0
 10 39  1  0
 11 40  1  0
 13 41  1  0
 14 42  1  0
 23 43  1  0
 23 44  1  0
 28 45  1  0
 29 46  1  0
 29 47  1  0
 32 48  1  0
 32 49  1  0
 35 50  1  0
M  ISO  8  36  14  37  14  38  14  39  14  40  14  41  14  42  14  43   8
M  ISO  7  44   8  45   3  46  13  47  13  48  13  49  13  50   3
M  END
>  <minimizedAffinity>  (1) 
-6.7691679

>  <minimizedRMSD>  (1) 
0.993243277

$$$$
