
     RDKit          3D

 44 47  0  0  0  0  0  0  0  0999 V2000
   45.6050   32.4900   40.2600 Cl  0  0  0  0  0  0  0  0  0  0  0  0
   46.9080   33.6140   40.0360 C   0  0  0  0  0  0  0  0  0  0  0  0
   47.4440   34.3040   41.0910 C   0  0  0  0  0  0  0  0  0  0  0  0
   48.4860   35.2100   40.9440 C   0  0  0  0  0  0  0  0  0  0  0  0
   48.9590   35.3760   39.6500 C   0  0  0  0  0  0  0  0  0  0  0  0
   48.4220   34.6810   38.5880 C   0  0  0  0  0  0  0  0  0  0  0  0
   47.4050   33.8050   38.7700 C   0  0  0  0  0  0  0  0  0  0  0  0
   46.7490   32.7900   44.3800 C   0  0  0  0  0  0  0  0  0  0  0  0
   45.8370   33.7030   44.9560 C   0  0  0  0  0  0  0  0  0  0  0  0
   45.4760   34.8220   44.2070 C   0  0  0  0  0  0  0  0  0  0  0  0
   46.0190   34.9810   42.9590 N   0  0  0  0  0  0  0  0  0  0  0  0
   46.8900   34.0790   42.4460 C   0  0  0  0  0  0  0  0  0  0  0  0
   47.2460   32.9950   43.1590 N   0  0  0  0  0  0  0  0  0  0  0  0
   44.5210   35.8640   44.7030 C   0  0  0  0  0  0  0  0  0  0  0  0
   44.9990   37.1130   44.4820 F   0  0  0  0  0  0  0  0  0  0  0  0
   43.3160   35.6970   44.0360 F   0  0  0  0  0  0  0  0  0  0  0  0
   44.3310   35.6170   46.0430 F   0  0  0  0  0  0  0  0  0  0  0  0
   46.8350   33.0710   37.6460 C   0  0  0  0  0  0  0  0  0  0  0  0
   45.5930   33.3530   37.0640 C   0  0  0  0  0  0  0  0  0  0  0  0
   45.3940   32.4530   36.0320 C   0  0  0  0  0  0  0  0  0  0  0  0
   46.5260   31.6690   36.0430 C   0  0  0  0  0  0  0  0  0  0  0  0
   47.3500   32.0550   36.9990 O   0  0  0  0  0  0  0  0  0  0  0  0
   46.7320   30.6000   35.1270 N   0  0  0  0  0  0  0  0  0  0  0  0
   46.0260   29.3580   35.3090 C   0  0  0  0  0  0  0  0  0  0  0  0
   46.5350   28.2620   34.4400 C   0  0  0  0  0  0  0  0  0  0  0  0
   46.8310   28.6290   33.0890 N   0  0  0  0  0  0  0  0  0  0  0  0
   46.8740   30.0380   32.8320 C   0  0  0  0  0  0  0  0  0  0  0  0
   47.6310   30.6870   33.9960 C   0  0  0  0  0  0  0  0  0  0  0  0
   48.9089   35.7602   41.7975 H   0  0  0  0  0  0  0  0  0  0  0  0
   49.7838   36.0805   39.4672 H   0  0  0  0  0  0  0  0  0  0  0  0
   48.8254   34.8401   37.5771 H   0  0  0  0  0  0  0  0  0  0  0  0
   47.0534   31.8976   44.9465 H   0  0  0  0  0  0  0  0  0  0  0  0
   45.4254   33.5362   45.9624 H   0  0  0  0  0  0  0  0  0  0  0  0
   44.8989   34.1486   37.3724 H   0  0  0  0  0  0  0  0  0  0  0  0
   44.5287   32.3804   35.3567 H   0  0  0  0  0  0  0  0  0  0  0  0
   46.1289   29.0479   36.3594 H   0  0  0  0  0  0  0  0  0  0  0  0
   44.9763   29.5347   35.0316 H   0  0  0  0  0  0  0  0  0  0  0  0
   47.4575   27.8712   34.8941 H   0  0  0  0  0  0  0  0  0  0  0  0
   45.7211   27.5245   34.3793 H   0  0  0  0  0  0  0  0  0  0  0  0
   47.7503   28.2331   32.8460 H   0  0  0  0  0  0  0  0  0  0  0  0
   47.3992   30.2328   31.8853 H   0  0  0  0  0  0  0  0  0  0  0  0
   45.8580   30.4512   32.7476 H   0  0  0  0  0  0  0  0  0  0  0  0
   48.5639   30.1416   34.2016 H   0  0  0  0  0  0  0  0  0  0  0  0
   47.9143   31.7265   33.7743 H   0  0  0  0  0  0  0  0  0  0  0  0
  2  1  1  0
  2  3  2  0
  3 12  1  0
  4  3  1  0
  5  4  2  0
  6  7  2  0
  6  5  1  0
  7  2  1  0
  8  9  2  0
 10 14  1  0
 10  9  1  0
 11 10  2  0
 12 11  1  0
 12 13  2  0
 13  8  1  0
 14 17  1  0
 15 14  1  0
 16 14  1  0
 18  7  1  0
 19 18  2  0
 20 21  2  0
 20 19  1  0
 21 22  1  0
 22 18  1  0
 23 24  1  0
 23 21  1  0
 25 24  1  0
 26 25  1  0
 27 26  1  0
 27 28  1  0
 28 23  1  0
  4 29  1  0
  5 30  1  0
  6 31  1  0
  8 32  1  0
  9 33  1  0
 19 34  1  0
 20 35  1  0
 24 36  1  0
 24 37  1  0
 25 38  1  0
 25 39  1  0
 26 40  1  0
 27 41  1  0
 27 42  1  0
 28 43  1  0
 28 44  1  0
M  ISO  8  29  14  30  14  31  14  32  14  33  14  34  14  35  14  36  13
M  ISO  8  37  13  38  13  39  13  40   5  41  13  42  13  43  13  44  13
M  END
>  <minimizedAffinity>  (1) 
-5.92509413

>  <minimizedRMSD>  (1) 
1.10377955

$$$$
