
     RDKit          3D

 36 39  0  0  0  0  0  0  0  0999 V2000
   45.5150   32.3610   40.4950 Cl  0  0  0  0  0  0  0  0  0  0  0  0
   46.8100   33.4730   40.1540 C   0  0  0  0  0  0  0  0  0  0  0  0
   47.3860   34.2100   41.1600 C   0  0  0  0  0  0  0  0  0  0  0  0
   48.4250   35.1080   40.9210 C   0  0  0  0  0  0  0  0  0  0  0  0
   48.8420   35.2150   39.6130 C   0  0  0  0  0  0  0  0  0  0  0  0
   48.2650   34.4760   38.5970 C   0  0  0  0  0  0  0  0  0  0  0  0
   47.2710   33.6200   38.8480 C   0  0  0  0  0  0  0  0  0  0  0  0
   46.8900   32.8930   44.5570 C   0  0  0  0  0  0  0  0  0  0  0  0
   45.9520   33.8010   45.1060 C   0  0  0  0  0  0  0  0  0  0  0  0
   45.5100   34.8410   44.3070 C   0  0  0  0  0  0  0  0  0  0  0  0
   46.0030   34.9320   43.0370 N   0  0  0  0  0  0  0  0  0  0  0  0
   46.8970   34.0520   42.5370 C   0  0  0  0  0  0  0  0  0  0  0  0
   47.3280   33.0470   43.3000 N   0  0  0  0  0  0  0  0  0  0  0  0
   44.5160   35.8740   44.7660 C   0  0  0  0  0  0  0  0  0  0  0  0
   44.9850   37.1330   44.5360 F   0  0  0  0  0  0  0  0  0  0  0  0
   43.3330   35.6860   44.0730 F   0  0  0  0  0  0  0  0  0  0  0  0
   44.3080   35.6340   46.1060 F   0  0  0  0  0  0  0  0  0  0  0  0
   46.6420   32.8310   37.8070 C   0  0  0  0  0  0  0  0  0  0  0  0
   45.6150   33.2520   36.9840 C   0  0  0  0  0  0  0  0  0  0  0  0
   45.2560   32.2570   36.1130 C   0  0  0  0  0  0  0  0  0  0  0  0
   46.1130   31.2340   36.4550 C   0  0  0  0  0  0  0  0  0  0  0  0
   46.9080   31.5920   37.4400 O   0  0  0  0  0  0  0  0  0  0  0  0
   46.0810   29.9520   35.7670 C   0  0  0  0  0  0  0  0  0  0  0  0
   45.8330   30.0190   34.3230 C   0  0  0  0  0  0  0  0  0  0  0  0
   45.8580   28.2140   33.7640 S   0  0  0  0  0  0  0  0  0  0  0  0
   46.1940   27.7220   35.5630 C   0  0  0  0  0  0  0  0  0  0  0  0
   46.2250   28.7040   36.1270 N   0  0  0  0  0  0  0  0  0  0  0  0
   48.8844   35.6961   41.7291 H   0  0  0  0  0  0  0  0  0  0  0  0
   49.6592   35.9097   39.3691 H   0  0  0  0  0  0  0  0  0  0  0  0
   48.6301   34.5948   37.5662 H   0  0  0  0  0  0  0  0  0  0  0  0
   47.2614   32.0559   45.1664 H   0  0  0  0  0  0  0  0  0  0  0  0
   45.5858   33.6832   46.1365 H   0  0  0  0  0  0  0  0  0  0  0  0
   45.1500   34.2481   37.0227 H   0  0  0  0  0  0  0  0  0  0  0  0
   44.4782   32.2714   35.3353 H   0  0  0  0  0  0  0  0  0  0  0  0
   45.6698   30.9151   33.7063 H   0  0  0  0  0  0  0  0  0  0  0  0
   46.3289   26.7087   35.9691 H   0  0  0  0  0  0  0  0  0  0  0  0
  2  1  1  0
  2  3  2  0
  3 12  1  0
  4  3  1  0
  5  4  2  0
  6  7  2  0
  6  5  1  0
  7  2  1  0
  8  9  2  0
 10 14  1  0
 10  9  1  0
 11 10  2  0
 12 11  1  0
 12 13  2  0
 13  8  1  0
 14 17  1  0
 15 14  1  0
 16 14  1  0
 18  7  1  0
 19 18  2  0
 20 21  2  0
 20 19  1  0
 21 22  1  0
 22 18  1  0
 23 27  1  0
 23 21  1  0
 24 23  2  0
 25 24  1  0
 25 26  1  0
 26 27  2  0
  4 28  1  0
  5 29  1  0
  6 30  1  0
  8 31  1  0
  9 32  1  0
 19 33  1  0
 20 34  1  0
 24 35  1  0
 26 36  1  0
M  ISO  8  28  14  29  14  30  14  31  14  32  14  33  14  34  14  35  14
M  ISO  1  36  14
M  END
>  <minimizedAffinity>  (1) 
-5.65914154

>  <minimizedRMSD>  (1) 
0.177415624

$$$$
