
     RDKit          3D

 37 40  0  0  0  0  0  0  0  0999 V2000
   45.4810   32.3690   40.5140 Cl  0  0  0  0  0  0  0  0  0  0  0  0
   46.7810   33.4630   40.1730 C   0  0  0  0  0  0  0  0  0  0  0  0
   47.3670   34.1910   41.1670 C   0  0  0  0  0  0  0  0  0  0  0  0
   48.4150   35.0800   40.9200 C   0  0  0  0  0  0  0  0  0  0  0  0
   48.8300   35.1820   39.6010 C   0  0  0  0  0  0  0  0  0  0  0  0
   48.2390   34.4470   38.5940 C   0  0  0  0  0  0  0  0  0  0  0  0
   47.2320   33.6030   38.8710 C   0  0  0  0  0  0  0  0  0  0  0  0
   46.8870   32.8960   44.5760 C   0  0  0  0  0  0  0  0  0  0  0  0
   45.9470   33.8120   45.1240 C   0  0  0  0  0  0  0  0  0  0  0  0
   45.5060   34.8480   44.3070 C   0  0  0  0  0  0  0  0  0  0  0  0
   45.9910   34.9350   43.0320 N   0  0  0  0  0  0  0  0  0  0  0  0
   46.8870   34.0420   42.5420 C   0  0  0  0  0  0  0  0  0  0  0  0
   47.3130   33.0470   43.3190 N   0  0  0  0  0  0  0  0  0  0  0  0
   44.5190   35.8750   44.7700 C   0  0  0  0  0  0  0  0  0  0  0  0
   44.9800   37.1300   44.5450 F   0  0  0  0  0  0  0  0  0  0  0  0
   43.3340   35.6860   44.0690 F   0  0  0  0  0  0  0  0  0  0  0  0
   44.3070   35.6420   46.1050 F   0  0  0  0  0  0  0  0  0  0  0  0
   46.5890   32.8110   37.8180 C   0  0  0  0  0  0  0  0  0  0  0  0
   45.5560   33.2610   37.0050 C   0  0  0  0  0  0  0  0  0  0  0  0
   45.2000   32.2500   36.1300 C   0  0  0  0  0  0  0  0  0  0  0  0
   46.0500   31.2200   36.4630 C   0  0  0  0  0  0  0  0  0  0  0  0
   46.8470   31.5770   37.4510 O   0  0  0  0  0  0  0  0  0  0  0  0
   46.0650   29.9040   35.8090 C   0  0  0  0  0  0  0  0  0  0  0  0
   45.3400   28.7790   36.1610 C   0  0  0  0  0  0  0  0  0  0  0  0
   45.6850   27.8280   35.2750 N   0  0  0  0  0  0  0  0  0  0  0  0
   46.5840   28.2750   34.3800 C   0  0  0  0  0  0  0  0  0  0  0  0
   46.7970   29.5550   34.7350 N   0  0  0  0  0  0  0  0  0  0  0  0
   48.8839   35.6652   41.7248 H   0  0  0  0  0  0  0  0  0  0  0  0
   49.6529   35.8676   39.3506 H   0  0  0  0  0  0  0  0  0  0  0  0
   48.5947   34.5530   37.5585 H   0  0  0  0  0  0  0  0  0  0  0  0
   47.2634   32.0628   45.1876 H   0  0  0  0  0  0  0  0  0  0  0  0
   45.5820   33.7051   46.1562 H   0  0  0  0  0  0  0  0  0  0  0  0
   45.0958   34.2591   37.0497 H   0  0  0  0  0  0  0  0  0  0  0  0
   44.4220   32.2657   35.3525 H   0  0  0  0  0  0  0  0  0  0  0  0
   44.6281   28.6825   36.9940 H   0  0  0  0  0  0  0  0  0  0  0  0
   45.3056   26.8704   35.2811 H   0  0  0  0  0  0  0  0  0  0  0  0
   47.0410   27.7202   33.5473 H   0  0  0  0  0  0  0  0  0  0  0  0
  2  1  1  0
  2  3  2  0
  3 12  1  0
  4  3  1  0
  5  4  2  0
  6  7  2  0
  6  5  1  0
  7  2  1  0
  8  9  2  0
 10 14  1  0
 10  9  1  0
 11 10  2  0
 12 11  1  0
 12 13  2  0
 13  8  1  0
 14 17  1  0
 15 14  1  0
 16 14  1  0
 18  7  1  0
 19 18  2  0
 20 21  2  0
 20 19  1  0
 21 22  1  0
 22 18  1  0
 23 24  2  0
 23 21  1  0
 25 24  1  0
 26 27  2  0
 26 25  1  0
 27 23  1  0
  4 28  1  0
  5 29  1  0
  6 30  1  0
  8 31  1  0
  9 32  1  0
 19 33  1  0
 20 34  1  0
 24 35  1  0
 25 36  1  0
 26 37  1  0
M  ISO  8  28  14  29  14  30  14  31  14  32  14  33  14  34  14  35  14
M  ISO  2  36   9  37  14
M  END
>  <minimizedAffinity>  (1) 
-5.62620258

>  <minimizedRMSD>  (1) 
0.139810652

$$$$
