
     RDKit          3D

 25 26  0  0  0  0  0  0  0  0999 V2000
   46.0550   34.0450   41.0900 C   0  0  0  0  0  0  0  0  0  0  0  0
   46.6580   34.7730   42.1040 C   0  0  0  0  0  0  0  0  0  0  0  0
   47.9210   35.2910   41.9110 C   0  0  0  0  0  0  0  0  0  0  0  0
   48.6530   35.1340   40.7470 C   0  0  0  0  0  0  0  0  0  0  0  0
   48.0870   34.4150   39.7140 C   0  0  0  0  0  0  0  0  0  0  0  0
   46.8240   33.9050   39.9280 C   0  0  0  0  0  0  0  0  0  0  0  0
   44.4140   36.1790   44.7830 C   0  0  0  0  0  0  0  0  0  0  0  0
   45.0900   36.0610   43.5460 C   0  0  0  0  0  0  0  0  0  0  0  0
   45.9250   34.9660   43.3490 C   0  0  0  0  0  0  0  0  0  0  0  0
   46.0300   34.0830   44.3710 N   0  0  0  0  0  0  0  0  0  0  0  0
   45.3790   34.2180   45.5320 C   0  0  0  0  0  0  0  0  0  0  0  0
   44.5650   35.2730   45.7400 N   0  0  0  0  0  0  0  0  0  0  0  0
   45.5290   33.2500   46.5760 N   0  0  0  0  0  0  0  0  0  0  0  0
   44.4680   33.3360   41.2000 S   0  0  0  0  0  0  0  0  0  0  0  0
   44.3960   32.2350   40.1480 O   0  0  0  0  0  0  0  0  0  0  0  0
   43.4410   34.3620   40.8230 O   0  0  0  0  0  0  0  0  0  0  0  0
   48.3748   35.8644   42.7328 H   0  0  0  0  0  0  0  0  0  0  0  0
   49.6580   35.5702   40.6480 H   0  0  0  0  0  0  0  0  0  0  0  0
   48.6186   34.2562   38.7642 H   0  0  0  0  0  0  0  0  0  0  0  0
   46.3757   33.3309   39.1038 H   0  0  0  0  0  0  0  0  0  0  0  0
   43.7500   37.0390   44.9547 H   0  0  0  0  0  0  0  0  0  0  0  0
   44.9585   36.8174   42.7583 H   0  0  0  0  0  0  0  0  0  0  0  0
   45.0211   33.3677   47.4643 H   0  0  0  0  0  0  0  0  0  0  0  0
   46.1448   32.4358   46.4388 H   0  0  0  0  0  0  0  0  0  0  0  0
   44.2417   32.8702   42.4683 H   0  0  0  0  0  0  0  0  0  0  0  0
  1 14  1  0
  1  2  2  0
  2  9  1  0
  3  2  1  0
  4  3  2  0
  5  6  2  0
  5  4  1  0
  6  1  1  0
  7 12  2  0
  8  7  1  0
  9  8  2  0
  9 10  1  0
 10 11  2  0
 11 12  1  0
 11 13  1  0
 15 14  2  0
 16 14  2  0
  3 17  1  0
  4 18  1  0
  5 19  1  0
  6 20  1  0
  7 21  1  0
  8 22  1  0
 13 23  1  0
 13 24  1  0
 14 25  1  0
M  ISO  7  17  14  18  14  19  14  20  14  21  14  22  14  25  11
M  END
>  <minimizedAffinity>  (1) 
-5.53971481

>  <minimizedRMSD>  (1) 
1.91314685

$$$$
