
     RDKit          3D

 22 23  0  0  0  0  0  0  0  0999 V2000
   44.4120   36.1490   44.7600 C   0  0  0  0  0  0  0  0  0  0  0  0
   45.1130   36.0470   43.5350 C   0  0  0  0  0  0  0  0  0  0  0  0
   45.9730   34.9720   43.3440 C   0  0  0  0  0  0  0  0  0  0  0  0
   46.0810   34.0820   44.3620 N   0  0  0  0  0  0  0  0  0  0  0  0
   45.4060   34.2010   45.5130 C   0  0  0  0  0  0  0  0  0  0  0  0
   44.5650   35.2380   45.7190 N   0  0  0  0  0  0  0  0  0  0  0  0
   45.5420   33.2530   46.5550 N   0  0  0  0  0  0  0  0  0  0  0  0
   44.9590   33.4780   41.3000 F   0  0  0  0  0  0  0  0  0  0  0  0
   46.1870   34.0350   41.1050 C   0  0  0  0  0  0  0  0  0  0  0  0
   46.7260   34.7950   42.1210 C   0  0  0  0  0  0  0  0  0  0  0  0
   47.9610   35.3300   41.8740 C   0  0  0  0  0  0  0  0  0  0  0  0
   48.6540   35.1410   40.6900 C   0  0  0  0  0  0  0  0  0  0  0  0
   48.0350   34.3640   39.7290 C   0  0  0  0  0  0  0  0  0  0  0  0
   46.7930   33.7870   39.8960 C   0  0  0  0  0  0  0  0  0  0  0  0
   43.7288   36.9956   44.9228 H   0  0  0  0  0  0  0  0  0  0  0  0
   44.9798   36.8044   42.7485 H   0  0  0  0  0  0  0  0  0  0  0  0
   45.0107   33.3694   47.4297 H   0  0  0  0  0  0  0  0  0  0  0  0
   46.1723   32.4467   46.4387 H   0  0  0  0  0  0  0  0  0  0  0  0
   48.4286   35.9434   42.6583 H   0  0  0  0  0  0  0  0  0  0  0  0
   49.6459   35.5863   40.5230 H   0  0  0  0  0  0  0  0  0  0  0  0
   48.5620   34.1963   38.7781 H   0  0  0  0  0  0  0  0  0  0  0  0
   46.3205   33.1715   39.1163 H   0  0  0  0  0  0  0  0  0  0  0  0
  1  6  2  0
  2  1  1  0
  3  2  2  0
  3  4  1  0
  4  5  2  0
  5  6  1  0
  5  7  1  0
  9  8  1  0
  9 10  2  0
 10  3  1  0
 11 10  1  0
 12 11  2  0
 13 14  2  0
 13 12  1  0
 14  9  1  0
  1 15  1  0
  2 16  1  0
  7 17  1  0
  7 18  1  0
 11 19  1  0
 12 20  1  0
 13 21  1  0
 14 22  1  0
M  ISO  6  15  14  16  14  19  14  20  14  21  14  22  14
M  END
>  <minimizedAffinity>  (1) 
-5.53228092

>  <minimizedRMSD>  (1) 
1.31128097

$$$$
