
     RDKit          3D

 28 29  0  0  0  0  0  0  0  0999 V2000
   44.4920   36.0360   44.6710 C   0  0  0  0  0  0  0  0  0  0  0  0
   45.2140   35.8140   43.4860 C   0  0  0  0  0  0  0  0  0  0  0  0
   46.0460   34.6790   43.4420 C   0  0  0  0  0  0  0  0  0  0  0  0
   46.1000   33.8710   44.5450 N   0  0  0  0  0  0  0  0  0  0  0  0
   45.3910   34.1260   45.6520 C   0  0  0  0  0  0  0  0  0  0  0  0
   44.5860   35.2040   45.7240 N   0  0  0  0  0  0  0  0  0  0  0  0
   45.4430   33.2910   46.7990 N   0  0  0  0  0  0  0  0  0  0  0  0
   46.8100   34.4230   42.2190 C   0  0  0  0  0  0  0  0  0  0  0  0
   45.9030   34.3390   40.9870 C   0  0  0  0  0  0  0  0  0  0  0  0
   46.7350   33.5290   39.9860 C   0  0  0  0  0  0  0  0  0  0  0  0
   47.9780   34.2930   39.6480 C   0  0  0  0  0  0  0  0  0  0  0  0
   48.7480   34.8170   40.8120 C   0  0  0  0  0  0  0  0  0  0  0  0
   47.8630   35.4240   41.8900 C   0  0  0  0  0  0  0  0  0  0  0  0
   43.8323   36.9136   44.7394 H   0  0  0  0  0  0  0  0  0  0  0  0
   45.1326   36.4983   42.6287 H   0  0  0  0  0  0  0  0  0  0  0  0
   44.8814   33.5229   47.6307 H   0  0  0  0  0  0  0  0  0  0  0  0
   46.0423   32.4533   46.7994 H   0  0  0  0  0  0  0  0  0  0  0  0
   47.3015   33.4660   42.4485 H   0  0  0  0  0  0  0  0  0  0  0  0
   44.9620   33.8218   41.2258 H   0  0  0  0  0  0  0  0  0  0  0  0
   45.6107   35.3269   40.6015 H   0  0  0  0  0  0  0  0  0  0  0  0
   47.0077   32.5612   40.4321 H   0  0  0  0  0  0  0  0  0  0  0  0
   46.1478   33.3549   39.0723 H   0  0  0  0  0  0  0  0  0  0  0  0
   48.6403   33.6261   39.0765 H   0  0  0  0  0  0  0  0  0  0  0  0
   47.6443   35.1772   39.0851 H   0  0  0  0  0  0  0  0  0  0  0  0
   49.3201   33.9883   41.2547 H   0  0  0  0  0  0  0  0  0  0  0  0
   49.4035   35.6171   40.4376 H   0  0  0  0  0  0  0  0  0  0  0  0
   48.4614   35.6481   42.7854 H   0  0  0  0  0  0  0  0  0  0  0  0
   47.4098   36.3622   41.5372 H   0  0  0  0  0  0  0  0  0  0  0  0
  1  6  2  0
  2  1  1  0
  3  2  2  0
  3  4  1  0
  4  5  2  0
  5  6  1  0
  5  7  1  0
  8  3  1  0
  9  8  1  0
 10  9  1  0
 11 10  1  0
 11 12  1  0
 12 13  1  0
 13  8  1  0
  1 14  1  0
  2 15  1  0
  7 16  1  0
  7 17  1  0
  8 18  1  0
  9 19  1  0
  9 20  1  0
 10 21  1  0
 10 22  1  0
 11 23  1  0
 11 24  1  0
 12 25  1  0
 12 26  1  0
 13 27  1  0
 13 28  1  0
M  ISO  8  14  14  15  14  18  13  19  13  20  13  21  13  22  13  23  13
M  ISO  5  24  13  25  13  26  13  27  13  28  13
M  END
>  <minimizedAffinity>  (1) 
-5.31093359

>  <minimizedRMSD>  (1) 
0.786177874

$$$$
