
     RDKit          3D

 19 20  0  0  0  0  0  0  0  0999 V2000
   44.5100   36.1080   44.6670 C   0  0  0  0  0  0  0  0  0  0  0  0
   45.1790   36.0980   43.4390 C   0  0  0  0  0  0  0  0  0  0  0  0
   46.0020   35.0030   43.1880 C   0  0  0  0  0  0  0  0  0  0  0  0
   46.1250   34.0170   44.1080 N   0  0  0  0  0  0  0  0  0  0  0  0
   45.4560   34.0740   45.2820 C   0  0  0  0  0  0  0  0  0  0  0  0
   44.6470   35.1300   45.5520 N   0  0  0  0  0  0  0  0  0  0  0  0
   45.5600   33.0610   46.2690 N   0  0  0  0  0  0  0  0  0  0  0  0
   46.7580   34.8110   42.0120 C   0  0  0  0  0  0  0  0  0  0  0  0
   48.0820   35.4100   41.7670 C   0  0  0  0  0  0  0  0  0  0  0  0
   48.6630   35.1070   40.5630 C   0  0  0  0  0  0  0  0  0  0  0  0
   47.9660   34.2630   39.6700 C   0  0  0  0  0  0  0  0  0  0  0  0
   46.4160   33.8770   40.5660 S   0  0  0  0  0  0  0  0  0  0  0  0
   43.8491   36.9541   44.9064 H   0  0  0  0  0  0  0  0  0  0  0  0
   45.0613   36.9127   42.7093 H   0  0  0  0  0  0  0  0  0  0  0  0
   45.0327   33.1441   47.1499 H   0  0  0  0  0  0  0  0  0  0  0  0
   46.1629   32.2421   46.1050 H   0  0  0  0  0  0  0  0  0  0  0  0
   48.5739   36.0605   42.5052 H   0  0  0  0  0  0  0  0  0  0  0  0
   49.6507   35.5123   40.2979 H   0  0  0  0  0  0  0  0  0  0  0  0
   48.2797   33.9193   38.6733 H   0  0  0  0  0  0  0  0  0  0  0  0
  1  6  2  0
  2  1  1  0
  3  2  2  0
  3  4  1  0
  4  5  2  0
  5  6  1  0
  5  7  1  0
  8  3  1  0
  9  8  2  0
 10  9  1  0
 11 10  2  0
 11 12  1  0
 12  8  1  0
  1 13  1  0
  2 14  1  0
  7 15  1  0
  7 16  1  0
  9 17  1  0
 10 18  1  0
 11 19  1  0
M  ISO  5  13  14  14  14  17  14  18  14  19  14
M  END
>  <minimizedAffinity>  (1) 
-4.85070658

>  <minimizedRMSD>  (1) 
1.29558885

$$$$
