
     RDKit          3D

 19 20  0  0  0  0  0  0  0  0999 V2000
   44.6440   36.0590   44.2360 C   0  0  0  0  0  0  0  0  0  0  0  0
   45.5180   35.7150   43.2030 C   0  0  0  0  0  0  0  0  0  0  0  0
   46.3280   34.5920   43.3980 C   0  0  0  0  0  0  0  0  0  0  0  0
   46.2370   33.8930   44.5560 N   0  0  0  0  0  0  0  0  0  0  0  0
   45.3720   34.2680   45.5290 C   0  0  0  0  0  0  0  0  0  0  0  0
   44.5630   35.3570   45.3820 N   0  0  0  0  0  0  0  0  0  0  0  0
   45.2540   33.5550   46.7540 N   0  0  0  0  0  0  0  0  0  0  0  0
   47.2900   34.1340   42.3730 C   0  0  0  0  0  0  0  0  0  0  0  0
   48.0680   35.0750   41.5550 C   0  0  0  0  0  0  0  0  0  0  0  0
   46.8550   34.3930   40.9470 C   0  0  0  0  0  0  0  0  0  0  0  0
   43.9958   36.9385   44.1085 H   0  0  0  0  0  0  0  0  0  0  0  0
   45.5673   36.3028   42.2745 H   0  0  0  0  0  0  0  0  0  0  0  0
   44.5849   33.8701   47.4709 H   0  0  0  0  0  0  0  0  0  0  0  0
   45.8376   32.7236   46.9242 H   0  0  0  0  0  0  0  0  0  0  0  0
   47.6023   33.2775   42.9885 H   0  0  0  0  0  0  0  0  0  0  0  0
   48.0362   36.1515   41.7790 H   0  0  0  0  0  0  0  0  0  0  0  0
   49.1280   35.1615   41.2739 H   0  0  0  0  0  0  0  0  0  0  0  0
   45.9398   34.9675   40.7411 H   0  0  0  0  0  0  0  0  0  0  0  0
   46.6592   33.7768   40.0571 H   0  0  0  0  0  0  0  0  0  0  0  0
  1  6  2  0
  2  3  2  0
  2  1  1  0
  3  4  1  0
  4  5  2  0
  5  7  1  0
  6  5  1  0
  8  3  1  0
  9  8  1  0
 10  9  1  0
 10  8  1  0
  1 11  1  0
  2 12  1  0
  7 13  1  0
  7 14  1  0
  8 15  1  0
  9 16  1  0
  9 17  1  0
 10 18  1  0
 10 19  1  0
M  ISO  7  11  14  12  14  15  13  16  13  17  13  18  13  19  13
M  END
>  <minimizedAffinity>  (1) 
-4.29326487

>  <minimizedRMSD>  (1) 
0.460226685

$$$$
