
     RDKit          3D

 14 14  0  0  0  0  0  0  0  0999 V2000
   44.5570   36.1220   44.4320 C   0  0  0  0  0  0  0  0  0  0  0  0
   45.3240   35.8810   43.2910 C   0  0  0  0  0  0  0  0  0  0  0  0
   46.1460   34.7560   43.3030 C   0  0  0  0  0  0  0  0  0  0  0  0
   46.1720   33.9470   44.4100 N   0  0  0  0  0  0  0  0  0  0  0  0
   45.4090   34.2350   45.4770 C   0  0  0  0  0  0  0  0  0  0  0  0
   44.5890   35.3220   45.5120 N   0  0  0  0  0  0  0  0  0  0  0  0
   45.4110   33.4210   46.6380 N   0  0  0  0  0  0  0  0  0  0  0  0
   46.9660   34.4620   42.1330 C   0  0  0  0  0  0  0  0  0  0  0  0
   47.8620   35.2610   41.7650 O   0  0  0  0  0  0  0  0  0  0  0  0
   43.8989   37.0033   44.4482 H   0  0  0  0  0  0  0  0  0  0  0  0
   45.2813   36.5507   42.4194 H   0  0  0  0  0  0  0  0  0  0  0  0
   44.8148   33.6676   47.4409 H   0  0  0  0  0  0  0  0  0  0  0  0
   46.0087   32.5831   46.6785 H   0  0  0  0  0  0  0  0  0  0  0  0
   46.7981   33.5329   41.5686 H   0  0  0  0  0  0  0  0  0  0  0  0
  1  6  2  0
  2  3  2  0
  2  1  1  0
  3  4  1  0
  4  5  2  0
  5  6  1  0
  5  7  1  0
  8  3  1  0
  9  8  2  0
  1 10  1  0
  2 11  1  0
  7 12  1  0
  7 13  1  0
  8 14  1  0
M  ISO  3  10  14  11  14  14   6
M  END
>  <minimizedAffinity>  (1) 
-3.68071079

>  <minimizedRMSD>  (1) 
0.515557945

$$$$
