
     RDKit          3D

 47 50  0  0  1  0  0  0  0  0999 V2000
   46.6330   32.9610   38.6570 N   0  0  0  0  0  0  0  0  0  0  0  0
   45.7530   33.3130   37.5420 C   0  0  0  0  0  0  0  0  0  0  0  0
   44.8790   32.1690   37.1170 C   0  0  0  0  0  0  0  0  0  0  0  0
   45.6550   31.0530   36.6100 N   0  0  0  0  0  0  0  0  0  0  0  0
   47.0400   31.2080   37.0720 C   0  0  0  0  0  0  0  0  0  0  0  0
   47.0140   31.5640   38.5410 C   0  0  1  0  0  0  0  0  0  0  0  0
   44.7630   32.9820   41.1730 Br  0  0  0  0  0  0  0  0  0  0  0  0
   46.4090   33.9270   40.9150 C   0  0  0  0  0  0  0  0  0  0  0  0
   46.8810   34.7240   41.9140 C   0  0  0  0  0  0  0  0  0  0  0  0
   48.0830   35.4350   41.7440 C   0  0  0  0  0  0  0  0  0  0  0  0
   48.7510   35.2970   40.5480 C   0  0  0  0  0  0  0  0  0  0  0  0
   48.2260   34.4780   39.5740 C   0  0  0  0  0  0  0  0  0  0  0  0
   47.0780   33.7880   39.7190 C   0  0  0  0  0  0  0  0  0  0  0  0
   45.6430   34.0400   45.2740 C   0  0  0  0  0  0  0  0  0  0  0  0
   44.7160   35.0930   45.5090 C   0  0  0  0  0  0  0  0  0  0  0  0
   44.5430   36.0250   44.4810 C   0  0  0  0  0  0  0  0  0  0  0  0
   45.2530   35.8760   43.3440 N   0  0  0  0  0  0  0  0  0  0  0  0
   46.1410   34.8410   43.1560 C   0  0  0  0  0  0  0  0  0  0  0  0
   46.3120   33.9440   44.1350 N   0  0  0  0  0  0  0  0  0  0  0  0
   48.1570   31.1670   39.2820 N   0  0  0  0  0  0  0  0  0  0  0  0
   49.2740   32.0500   38.8750 C   0  0  0  0  0  0  0  0  0  0  0  0
   50.5000   31.5130   39.5930 C   0  0  0  0  0  0  0  0  0  0  0  0
   50.3410   31.4760   40.9540 O   0  0  0  0  0  0  0  0  0  0  0  0
   49.1800   30.7870   41.3660 C   0  0  0  0  0  0  0  0  0  0  0  0
   48.0340   31.5050   40.7170 C   0  0  0  0  0  0  0  0  0  0  0  0
   45.1114   34.1518   37.8500 H   0  0  0  0  0  0  0  0  0  0  0  0
   46.3891   33.5838   36.6864 H   0  0  0  0  0  0  0  0  0  0  0  0
   44.2920   31.8294   37.9831 H   0  0  0  0  0  0  0  0  0  0  0  0
   44.2239   32.5236   36.3076 H   0  0  0  0  0  0  0  0  0  0  0  0
   45.6294   31.0501   35.5803 H   0  0  0  0  0  0  0  0  0  0  0  0
   47.5879   30.2652   36.9275 H   0  0  0  0  0  0  0  0  0  0  0  0
   47.5439   32.0004   36.4991 H   0  0  0  0  0  0  0  0  0  0  0  0
   46.2493   30.9550   39.0453 H   0  0  0  0  0  0  0  0  0  0  0  0
   48.4770   36.0813   42.5421 H   0  0  0  0  0  0  0  0  0  0  0  0
   49.6941   35.8354   40.3726 H   0  0  0  0  0  0  0  0  0  0  0  0
   48.7740   34.3816   38.6251 H   0  0  0  0  0  0  0  0  0  0  0  0
   45.8084   33.2864   46.0581 H   0  0  0  0  0  0  0  0  0  0  0  0
   44.1610   35.1705   46.4555 H   0  0  0  0  0  0  0  0  0  0  0  0
   43.8411   36.8639   44.5974 H   0  0  0  0  0  0  0  0  0  0  0  0
   49.4184   32.0093   37.7853 H   0  0  0  0  0  0  0  0  0  0  0  0
   49.0778   33.1009   39.1339 H   0  0  0  0  0  0  0  0  0  0  0  0
   50.6995   30.4926   39.2339 H   0  0  0  0  0  0  0  0  0  0  0  0
   51.3376   32.1917   39.3742 H   0  0  0  0  0  0  0  0  0  0  0  0
   49.2159   29.7397   41.0316 H   0  0  0  0  0  0  0  0  0  0  0  0
   49.0829   30.7714   42.4616 H   0  0  0  0  0  0  0  0  0  0  0  0
   48.1176   32.5911   40.8701 H   0  0  0  0  0  0  0  0  0  0  0  0
   47.0610   31.2097   41.1366 H   0  0  0  0  0  0  0  0  0  0  0  0
  1 13  1  0
  2  1  1  0
  3  2  1  0
  4  5  1  0
  4  3  1  0
  5  6  1  0
  6  1  1  0
  6 20  1  0
  8  7  1  0
  8  9  2  0
  9 18  1  0
 10  9  1  0
 11 10  2  0
 12 13  2  0
 12 11  1  0
 13  8  1  0
 14 15  2  0
 16 15  1  0
 17 16  2  0
 18 17  1  0
 18 19  2  0
 19 14  1  0
 20 25  1  0
 21 20  1  0
 21 22  1  0
 22 23  1  0
 23 24  1  0
 25 24  1  0
  2 26  1  0
  2 27  1  0
  3 28  1  0
  3 29  1  0
  4 30  1  0
  5 31  1  0
  5 32  1  0
  6 33  1  1
 10 34  1  0
 11 35  1  0
 12 36  1  0
 14 37  1  0
 15 38  1  0
 16 39  1  0
 21 40  1  0
 21 41  1  0
 22 42  1  0
 22 43  1  0
 24 44  1  0
 24 45  1  0
 25 46  1  0
 25 47  1  0
M  ISO  8  26  13  27  13  28  13  29  13  30   5  31  13  32  13  33  13
M  ISO  8  34  14  35  14  36  14  37  14  38  14  39  14  40  13  41  13
M  ISO  6  42  13  43  13  44  13  45  13  46  13  47  13
M  END
>  <minimizedAffinity>  (1) 
-5.88059902

>  <minimizedRMSD>  (1) 
0.0999627188

$$$$
