
     RDKit          3D

 14 14  0  0  0  0  0  0  0  0999 V2000
   44.6440   36.0350   44.3580 C   0  0  0  0  0  0  0  0  0  0  0  0
   45.4560   35.5890   43.3140 C   0  0  0  0  0  0  0  0  0  0  0  0
   46.1820   34.4070   43.5570 C   0  0  0  0  0  0  0  0  0  0  0  0
   46.0710   33.7680   44.7550 N   0  0  0  0  0  0  0  0  0  0  0  0
   45.2620   34.2660   45.7170 C   0  0  0  0  0  0  0  0  0  0  0  0
   44.5490   35.3960   45.5220 N   0  0  0  0  0  0  0  0  0  0  0  0
   45.1200   33.6270   46.9800 N   0  0  0  0  0  0  0  0  0  0  0  0
   47.0190   33.9270   42.5110 N   0  0  0  0  0  0  0  0  0  0  0  0
   44.0573   36.9541   44.2127 H   0  0  0  0  0  0  0  0  0  0  0  0
   45.5248   36.1288   42.3580 H   0  0  0  0  0  0  0  0  0  0  0  0
   44.4961   34.0298   47.6937 H   0  0  0  0  0  0  0  0  0  0  0  0
   45.6411   32.7615   47.1808 H   0  0  0  0  0  0  0  0  0  0  0  0
   47.5682   33.0660   42.6449 H   0  0  0  0  0  0  0  0  0  0  0  0
   47.0756   34.4406   41.6200 H   0  0  0  0  0  0  0  0  0  0  0  0
  1  6  2  0
  2  3  2  0
  2  1  1  0
  3  4  1  0
  4  5  2  0
  5  7  1  0
  6  5  1  0
  8  3  1  0
  1  9  1  0
  2 10  1  0
  7 11  1  0
  7 12  1  0
  8 13  1  0
  8 14  1  0
M  ISO  2   9  14  10  14
M  END
>  <minimizedAffinity>  (1) 
-3.56151342

>  <minimizedRMSD>  (1) 
0.0360373184

$$$$
