
     RDKit          3D

 13 13  0  0  0  0  0  0  0  0999 V2000
   44.6460   36.0420   44.3490 C   0  0  0  0  0  0  0  0  0  0  0  0
   45.4550   35.5650   43.3120 C   0  0  0  0  0  0  0  0  0  0  0  0
   46.1670   34.3910   43.5420 C   0  0  0  0  0  0  0  0  0  0  0  0
   46.0490   33.7650   44.7470 N   0  0  0  0  0  0  0  0  0  0  0  0
   45.2550   34.2680   45.7150 C   0  0  0  0  0  0  0  0  0  0  0  0
   44.5580   35.4040   45.5070 N   0  0  0  0  0  0  0  0  0  0  0  0
   45.1260   33.6240   46.9730 N   0  0  0  0  0  0  0  0  0  0  0  0
   47.2250   33.7320   42.2360 S   0  0  0  0  0  0  0  0  0  0  0  0
   44.0702   36.9673   44.1997 H   0  0  0  0  0  0  0  0  0  0  0  0
   45.5258   36.0971   42.3519 H   0  0  0  0  0  0  0  0  0  0  0  0
   44.5139   34.0263   47.6972 H   0  0  0  0  0  0  0  0  0  0  0  0
   45.6445   32.7543   47.1619 H   0  0  0  0  0  0  0  0  0  0  0  0
   48.2857   33.0713   42.7974 H   0  0  0  0  0  0  0  0  0  0  0  0
  1  6  2  0
  2  3  2  0
  2  1  1  0
  3  4  1  0
  4  5  2  0
  5  7  1  0
  6  5  1  0
  8  3  1  0
  1  9  1  0
  2 10  1  0
  7 11  1  0
  7 12  1  0
  8 13  1  0
M  ISO  3   9  14  10  14  13  11
M  END
>  <minimizedAffinity>  (1) 
-3.53652763

>  <minimizedRMSD>  (1) 
0.0193949062

$$$$
