
     RDKit          3D

 21 22  0  0  0  0  0  0  0  0999 V2000
   45.6540   35.4220   43.2680 C   0  0  0  0  0  0  0  0  0  0  0  0
   46.5990   34.4070   43.2550 C   0  0  0  0  0  0  0  0  0  0  0  0
   46.6950   33.6250   44.4160 C   0  0  0  0  0  0  0  0  0  0  0  0
   45.8850   33.8800   45.4760 N   0  0  0  0  0  0  0  0  0  0  0  0
   44.9810   34.8940   45.4150 C   0  0  0  0  0  0  0  0  0  0  0  0
   44.8690   35.6640   44.3080 N   0  0  0  0  0  0  0  0  0  0  0  0
   44.1290   35.1750   46.5100 N   0  0  0  0  0  0  0  0  0  0  0  0
   47.6580   32.5720   44.4320 N   0  0  0  0  0  0  0  0  0  0  0  0
   47.4990   34.0980   42.1210 C   0  0  0  0  0  0  0  0  0  0  0  0
   46.9780   34.3400   40.7530 C   0  0  0  0  0  0  0  0  0  0  0  0
   48.0720   35.1730   41.3000 C   0  0  0  0  0  0  0  0  0  0  0  0
   45.5513   36.0551   42.3743 H   0  0  0  0  0  0  0  0  0  0  0  0
   43.4492   35.9464   46.4489 H   0  0  0  0  0  0  0  0  0  0  0  0
   44.1888   34.6081   47.3678 H   0  0  0  0  0  0  0  0  0  0  0  0
   47.7569   31.9772   45.2671 H   0  0  0  0  0  0  0  0  0  0  0  0
   48.2542   32.4068   43.6085 H   0  0  0  0  0  0  0  0  0  0  0  0
   47.9359   33.2507   42.6698 H   0  0  0  0  0  0  0  0  0  0  0  0
   45.9751   34.7694   40.6127 H   0  0  0  0  0  0  0  0  0  0  0  0
   46.8394   33.7271   39.8501 H   0  0  0  0  0  0  0  0  0  0  0  0
   49.0912   35.0731   40.8985 H   0  0  0  0  0  0  0  0  0  0  0  0
   48.2300   36.2529   41.4370 H   0  0  0  0  0  0  0  0  0  0  0  0
  1  6  2  0
  2  1  1  0
  2  3  2  0
  3  8  1  0
  3  4  1  0
  5  4  2  0
  5  7  1  0
  6  5  1  0
  9  2  1  0
 10 11  1  0
 10  9  1  0
 11  9  1  0
  1 12  1  0
  7 13  1  0
  7 14  1  0
  8 15  1  0
  8 16  1  0
  9 17  1  0
 10 18  1  0
 10 19  1  0
 11 20  1  0
 11 21  1  0
M  ISO  6  12  14  17  13  18  13  19  13  20  13  21  13
M  END
>  <minimizedAffinity>  (1) 
-4.5423274

>  <minimizedRMSD>  (1) 
2.09780359

$$$$
