
     RDKit          3D

 17 17  0  0  0  0  0  0  0  0999 V2000
   45.0050   35.5660   44.0520 C   0  0  0  0  0  0  0  0  0  0  0  0
   46.0120   34.7570   43.5100 C   0  0  0  0  0  0  0  0  0  0  0  0
   46.5040   33.7370   44.3310 C   0  0  0  0  0  0  0  0  0  0  0  0
   46.0090   33.5690   45.5850 N   0  0  0  0  0  0  0  0  0  0  0  0
   45.0400   34.3800   46.0500 C   0  0  0  0  0  0  0  0  0  0  0  0
   44.5360   35.3800   45.2840 N   0  0  0  0  0  0  0  0  0  0  0  0
   44.5040   34.2270   47.3560 N   0  0  0  0  0  0  0  0  0  0  0  0
   47.5270   32.9070   43.7940 N   0  0  0  0  0  0  0  0  0  0  0  0
   46.5250   34.9840   42.1210 C   0  0  0  0  0  0  0  0  0  0  0  0
   44.5888   36.3803   43.4407 H   0  0  0  0  0  0  0  0  0  0  0  0
   43.7630   34.8617   47.6862 H   0  0  0  0  0  0  0  0  0  0  0  0
   44.8562   33.4813   47.9731 H   0  0  0  0  0  0  0  0  0  0  0  0
   47.9206   32.1426   44.3611 H   0  0  0  0  0  0  0  0  0  0  0  0
   47.8740   33.0705   42.8381 H   0  0  0  0  0  0  0  0  0  0  0  0
   47.5299   35.4287   42.1694 H   0  0  0  0  0  0  0  0  0  0  0  0
   46.5743   34.0237   41.5868 H   0  0  0  0  0  0  0  0  0  0  0  0
   45.8474   35.6663   41.5868 H   0  0  0  0  0  0  0  0  0  0  0  0
  1  6  2  0
  2  1  1  0
  2  3  2  0
  3  4  1  0
  4  5  2  0
  5  7  1  0
  6  5  1  0
  8  3  1  0
  9  2  1  0
  1 10  1  0
  7 11  1  0
  7 12  1  0
  8 13  1  0
  8 14  1  0
  9 15  1  0
  9 16  1  0
  9 17  1  0
M  ISO  4  10  14  15   8  16   8  17   8
M  END
>  <minimizedAffinity>  (1) 
-4.05035162

>  <minimizedRMSD>  (1) 
1.0626514

$$$$
