
     RDKit          3D

 15 15  0  0  0  0  0  0  0  0999 V2000
   44.9110   35.6880   44.1190 C   0  0  0  0  0  0  0  0  0  0  0  0
   45.8870   34.9080   43.4970 C   0  0  0  0  0  0  0  0  0  0  0  0
   46.4030   33.8470   44.2490 C   0  0  0  0  0  0  0  0  0  0  0  0
   45.9510   33.6250   45.5100 N   0  0  0  0  0  0  0  0  0  0  0  0
   45.0090   34.4200   46.0410 C   0  0  0  0  0  0  0  0  0  0  0  0
   44.4820   35.4500   45.3620 N   0  0  0  0  0  0  0  0  0  0  0  0
   44.5130   34.2140   47.3620 N   0  0  0  0  0  0  0  0  0  0  0  0
   47.4060   33.0310   43.6350 N   0  0  0  0  0  0  0  0  0  0  0  0
   46.3130   35.1860   42.1920 O   0  0  0  0  0  0  0  0  0  0  0  0
   44.4774   36.5327   43.5637 H   0  0  0  0  0  0  0  0  0  0  0  0
   43.7897   34.8399   47.7440 H   0  0  0  0  0  0  0  0  0  0  0  0
   44.8781   33.4393   47.9342 H   0  0  0  0  0  0  0  0  0  0  0  0
   47.8134   32.2391   44.1524 H   0  0  0  0  0  0  0  0  0  0  0  0
   47.7203   33.2357   42.6757 H   0  0  0  0  0  0  0  0  0  0  0  0
   47.0065   34.6217   41.7669 H   0  0  0  0  0  0  0  0  0  0  0  0
  1  6  2  0
  2  1  1  0
  2  3  2  0
  3  4  1  0
  4  5  2  0
  5  7  1  0
  6  5  1  0
  8  3  1  0
  9  2  1  0
  1 10  1  0
  7 11  1  0
  7 12  1  0
  8 13  1  0
  8 14  1  0
  9 15  1  0
M  ISO  2  10  14  15   3
M  END
>  <minimizedAffinity>  (1) 
-3.91514254

>  <minimizedRMSD>  (1) 
0.911895037

$$$$
