
     RDKit          3D

 28 29  0  0  1  0  0  0  0  0999 V2000
   44.8910   34.5160   44.3320 C   0  0  0  0  0  0  0  0  0  0  0  0
   45.5690   34.1830   43.1580 C   0  0  0  0  0  0  0  0  0  0  0  0
   46.7700   33.4600   43.3160 C   0  0  0  0  0  0  0  0  0  0  0  0
   47.2030   33.1300   44.5660 N   0  0  0  0  0  0  0  0  0  0  0  0
   46.4900   33.4900   45.6540 C   0  0  0  0  0  0  0  0  0  0  0  0
   45.3440   34.1770   45.5300 N   0  0  0  0  0  0  0  0  0  0  0  0
   46.9280   33.1540   46.9570 N   0  0  0  0  0  0  0  0  0  0  0  0
   45.0490   34.5680   41.8160 C   0  0  1  0  0  0  0  0  0  0  0  0
   44.4250   33.3640   41.2010 C   0  0  0  0  0  0  0  0  0  0  0  0
   43.2890   33.5500   40.2790 C   0  0  0  0  0  0  0  0  0  0  0  0
   42.8300   34.9840   40.0880 C   0  0  0  0  0  0  0  0  0  0  0  0
   42.7540   35.5340   41.5010 C   0  0  0  0  0  0  0  0  0  0  0  0
   44.2240   35.8090   41.8400 C   0  0  0  0  0  0  0  0  0  0  0  0
   47.4750   33.1100   42.1380 N   0  0  0  0  0  0  0  0  0  0  0  0
   43.9487   35.0789   44.2600 H   0  0  0  0  0  0  0  0  0  0  0  0
   46.3715   33.4367   47.7763 H   0  0  0  0  0  0  0  0  0  0  0  0
   47.8033   32.6267   47.0861 H   0  0  0  0  0  0  0  0  0  0  0  0
   45.8702   34.8766   41.1524 H   0  0  0  0  0  0  0  0  0  0  0  0
   44.8034   32.3568   41.4296 H   0  0  0  0  0  0  0  0  0  0  0  0
   42.8067   32.7060   39.7642 H   0  0  0  0  0  0  0  0  0  0  0  0
   43.5558   35.5504   39.4860 H   0  0  0  0  0  0  0  0  0  0  0  0
   41.8716   35.0551   39.5529 H   0  0  0  0  0  0  0  0  0  0  0  0
   42.1602   36.4594   41.5343 H   0  0  0  0  0  0  0  0  0  0  0  0
   42.2655   34.8482   42.2088 H   0  0  0  0  0  0  0  0  0  0  0  0
   44.2789   36.2514   42.8456 H   0  0  0  0  0  0  0  0  0  0  0  0
   44.6236   36.4949   41.0785 H   0  0  0  0  0  0  0  0  0  0  0  0
   48.3570   32.5820   42.2033 H   0  0  0  0  0  0  0  0  0  0  0  0
   47.1056   33.3835   41.2163 H   0  0  0  0  0  0  0  0  0  0  0  0
  1  6  2  0
  2  3  2  0
  2  1  1  0
  3  4  1  0
  4  5  2  0
  5  7  1  0
  6  5  1  0
  8 13  1  0
  8  2  1  0
  9  8  1  0
 10  9  2  0
 11 10  1  0
 11 12  1  0
 12 13  1  0
 14  3  1  0
  1 15  1  0
  7 16  1  0
  7 17  1  0
  8 18  1  6
  9 19  1  0
 10 20  1  0
 11 21  1  0
 11 22  1  0
 12 23  1  0
 12 24  1  0
 13 25  1  0
 13 26  1  0
 14 27  1  0
 14 28  1  0
M  ISO  8  15  14  18  13  19  13  20  13  21  13  22  13  23  13  24  13
M  ISO  2  25  13  26  13
M  END
>  <minimizedAffinity>  (1) 
-4.31816339

>  <minimizedRMSD>  (1) 
1.88308907

$$$$
