
     RDKit          3D

 35 37  0  0  1  0  0  0  0  0999 V2000
   46.0470   34.8270   42.5470 C   0  0  1  0  0  0  0  0  0  0  0  0
   47.5640   35.0570   42.4050 C   0  0  0  0  0  0  0  0  0  0  0  0
   48.2060   34.7310   41.1420 C   0  0  0  0  0  0  0  0  0  0  0  0
   47.2700   34.1840   40.0770 C   0  0  0  0  0  0  0  0  0  0  0  0
   46.5010   33.0950   40.8110 C   0  0  0  0  0  0  0  0  0  0  0  0
   45.4410   33.9020   41.5980 C   0  0  2  0  0  0  0  0  0  0  0  0
   46.6630   33.5390   44.6170 C   0  0  0  0  0  0  0  0  0  0  0  0
   45.8540   34.5090   43.9860 C   0  0  0  0  0  0  0  0  0  0  0  0
   44.8260   35.0670   44.7570 C   0  0  0  0  0  0  0  0  0  0  0  0
   44.6380   34.6750   46.0400 N   0  0  0  0  0  0  0  0  0  0  0  0
   45.4520   33.7340   46.5890 C   0  0  0  0  0  0  0  0  0  0  0  0
   46.4550   33.1770   45.8730 N   0  0  0  0  0  0  0  0  0  0  0  0
   45.2710   33.3220   47.9260 N   0  0  0  0  0  0  0  0  0  0  0  0
   44.0380   36.0800   44.1360 N   0  0  0  0  0  0  0  0  0  0  0  0
   44.4660   34.5290   40.6300 C   0  0  0  0  0  0  0  0  0  0  0  0
   43.5630   33.8000   39.7610 C   0  0  0  0  0  0  0  0  0  0  0  0
   42.9980   34.3660   41.0300 C   0  0  0  0  0  0  0  0  0  0  0  0
   45.4830   35.7261   42.2581 H   0  0  0  0  0  0  0  0  0  0  0  0
   48.1503   35.4604   43.2437 H   0  0  0  0  0  0  0  0  0  0  0  0
   49.2838   34.8693   40.9708 H   0  0  0  0  0  0  0  0  0  0  0  0
   47.8365   33.7650   39.2323 H   0  0  0  0  0  0  0  0  0  0  0  0
   46.6157   34.9543   39.6428 H   0  0  0  0  0  0  0  0  0  0  0  0
   46.0258   32.3991   40.1039 H   0  0  0  0  0  0  0  0  0  0  0  0
   47.1369   32.4666   41.4519 H   0  0  0  0  0  0  0  0  0  0  0  0
   44.8567   33.2240   42.2375 H   0  0  0  0  0  0  0  0  0  0  0  0
   47.4844   33.0738   44.0522 H   0  0  0  0  0  0  0  0  0  0  0  0
   45.8922   32.6087   48.3337 H   0  0  0  0  0  0  0  0  0  0  0  0
   44.5176   33.7345   48.4945 H   0  0  0  0  0  0  0  0  0  0  0  0
   43.2685   36.5252   44.6562 H   0  0  0  0  0  0  0  0  0  0  0  0
   44.2382   36.3667   43.1672 H   0  0  0  0  0  0  0  0  0  0  0  0
   45.1911   35.3222   40.3954 H   0  0  0  0  0  0  0  0  0  0  0  0
   43.2698   34.2355   38.7944 H   0  0  0  0  0  0  0  0  0  0  0  0
   43.5791   32.7948   39.3146 H   0  0  0  0  0  0  0  0  0  0  0  0
   42.7167   33.7016   41.8603 H   0  0  0  0  0  0  0  0  0  0  0  0
   42.1694   35.0370   41.3005 H   0  0  0  0  0  0  0  0  0  0  0  0
  1  8  1  0
  2  1  1  0
  3  2  2  0
  4  5  1  0
  4  3  1  0
  5  6  1  0
  6  1  1  0
  7 12  2  0
  8  7  1  0
  8  9  2  0
  9 10  1  0
 10 11  2  0
 11 13  1  0
 12 11  1  0
 14  9  1  0
 15 17  1  0
 15  6  1  0
 16 15  1  0
 16 17  1  0
  1 18  1  1
  2 19  1  0
  3 20  1  0
  4 21  1  0
  4 22  1  0
  5 23  1  0
  5 24  1  0
  6 25  1  1
  7 26  1  0
 13 27  1  0
 13 28  1  0
 14 29  1  0
 14 30  1  0
 15 31  1  0
 16 32  1  0
 16 33  1  0
 17 34  1  0
 17 35  1  0
M  ISO  8  18  13  19  13  20  13  21  13  22  13  23  13  24  13  25  13
M  ISO  6  26  14  31  13  32  13  33  13  34  13  35  13
M  END
>  <minimizedAffinity>  (1) 
-5.79300261

>  <minimizedRMSD>  (1) 
3.22959781

$$$$
