
     RDKit          3D

 29 30  0  0  1  0  0  0  0  0999 V2000
   45.1420   33.2800   42.1470 C   0  0  1  0  0  0  0  0  0  0  0  0
   43.7010   32.7490   42.1880 C   0  0  0  0  0  0  0  0  0  0  0  0
   42.7030   33.2740   41.2650 C   0  0  0  0  0  0  0  0  0  0  0  0
   43.2160   34.3720   40.3460 C   0  0  0  0  0  0  0  0  0  0  0  0
   43.9440   35.3090   41.3080 C   0  0  0  0  0  0  0  0  0  0  0  0
   45.2830   34.5730   41.5100 C   0  0  2  0  0  0  0  0  0  0  0  0
   45.1580   34.0270   44.5500 C   0  0  0  0  0  0  0  0  0  0  0  0
   45.6320   33.1570   43.5430 C   0  0  0  0  0  0  0  0  0  0  0  0
   46.6410   32.2580   43.9100 C   0  0  0  0  0  0  0  0  0  0  0  0
   47.1120   32.2600   45.1910 N   0  0  0  0  0  0  0  0  0  0  0  0
   46.6090   33.1270   46.1090 C   0  0  0  0  0  0  0  0  0  0  0  0
   45.6400   33.9980   45.7800 N   0  0  0  0  0  0  0  0  0  0  0  0
   47.0920   33.1330   47.4360 N   0  0  0  0  0  0  0  0  0  0  0  0
   47.1010   31.3600   42.9200 N   0  0  0  0  0  0  0  0  0  0  0  0
   45.7170   34.3730   40.1800 O   0  0  0  0  0  0  0  0  0  0  0  0
   45.7887   32.6919   41.4793 H   0  0  0  0  0  0  0  0  0  0  0  0
   43.4223   31.9718   42.9148 H   0  0  0  0  0  0  0  0  0  0  0  0
   41.6664   32.9072   41.2354 H   0  0  0  0  0  0  0  0  0  0  0  0
   43.9054   33.9663   39.5909 H   0  0  0  0  0  0  0  0  0  0  0  0
   42.4178   34.8694   39.7754 H   0  0  0  0  0  0  0  0  0  0  0  0
   44.0963   36.3026   40.8613 H   0  0  0  0  0  0  0  0  0  0  0  0
   43.3962   35.5027   42.2420 H   0  0  0  0  0  0  0  0  0  0  0  0
   45.9607   35.1456   42.1603 H   0  0  0  0  0  0  0  0  0  0  0  0
   44.3655   34.7488   44.3033 H   0  0  0  0  0  0  0  0  0  0  0  0
   46.7029   33.7948   48.1227 H   0  0  0  0  0  0  0  0  0  0  0  0
   47.8334   32.4756   47.7172 H   0  0  0  0  0  0  0  0  0  0  0  0
   47.8421   30.6809   43.1450 H   0  0  0  0  0  0  0  0  0  0  0  0
   46.6951   31.3847   41.9737 H   0  0  0  0  0  0  0  0  0  0  0  0
   46.6161   33.9587   40.1850 H   0  0  0  0  0  0  0  0  0  0  0  0
  1  2  1  0
  1  8  1  0
  3  2  2  0
  4  3  1  0
  4  5  1  0
  5  6  1  0
  6  1  1  0
  7 12  2  0
  8  9  2  0
  8  7  1  0
  9 10  1  0
 10 11  2  0
 11 13  1  0
 12 11  1  0
 14  9  1  0
 15  6  1  0
  1 16  1  6
  2 17  1  0
  3 18  1  0
  4 19  1  0
  4 20  1  0
  5 21  1  0
  5 22  1  0
  6 23  1  1
  7 24  1  0
 13 25  1  0
 13 26  1  0
 14 27  1  0
 14 28  1  0
 15 29  1  0
M  ISO  8  16  13  17  13  18  13  19  13  20  13  21  13  22  13  23  13
M  ISO  2  24  14  29   3
M  END
>  <minimizedAffinity>  (1) 
-4.44864082

>  <minimizedRMSD>  (1) 
1.29871583

$$$$
