
     RDKit          3D

 17 17  0  0  0  0  0  0  0  0999 V2000
   44.9530   35.5320   44.3640 C   0  0  0  0  0  0  0  0  0  0  0  0
   45.8750   34.8700   43.5200 C   0  0  0  0  0  0  0  0  0  0  0  0
   46.5010   33.7220   44.0410 C   0  0  0  0  0  0  0  0  0  0  0  0
   46.1930   33.3240   45.2940 N   0  0  0  0  0  0  0  0  0  0  0  0
   45.2990   33.9940   46.0680 C   0  0  0  0  0  0  0  0  0  0  0  0
   44.6890   35.0930   45.5920 N   0  0  0  0  0  0  0  0  0  0  0  0
   44.3430   36.6520   43.8530 O   0  0  0  0  0  0  0  0  0  0  0  0
   44.9760   33.5900   47.3600 O   0  0  0  0  0  0  0  0  0  0  0  0
   46.9200   32.2290   48.3810 O   0  0  0  0  0  0  0  0  0  0  0  0
   45.4530   32.0890   48.0110 P   0  0  0  0  0  0  0  0  0  0  0  0
   45.3320   30.8360   46.8870 O   0  0  0  0  0  0  0  0  0  0  0  0
   44.6230   31.6970   49.4070 O   0  0  0  0  0  0  0  0  0  0  0  0
   46.0924   35.2348   42.5053 H   0  0  0  0  0  0  0  0  0  0  0  0
   47.2285   33.1589   43.4379 H   0  0  0  0  0  0  0  0  0  0  0  0
   44.5572   36.9575   42.9360 H   0  0  0  0  0  0  0  0  0  0  0  0
   45.2486   29.9722   47.3634 H   0  0  0  0  0  0  0  0  0  0  0  0
   45.1643   31.9526   50.1955 H   0  0  0  0  0  0  0  0  0  0  0  0
  1  6  2  0
  2  3  2  0
  2  1  1  0
  3  4  1  0
  4  5  2  0
  5  8  1  0
  6  5  1  0
  7  1  1  0
  8 10  1  0
 10  9  2  0
 10 12  1  0
 11 10  1  0
  2 13  1  0
  3 14  1  0
  7 15  1  0
 11 16  1  0
 12 17  1  0
M  ISO  5  13  14  14  14  15   3  16   3  17   3
M  END
>  <minimizedAffinity>  (1) 
-4.50021124

>  <minimizedRMSD>  (1) 
1.01834869

$$$$
