
     RDKit          3D

 20 20  0  0  0  0  0  0  0  0999 V2000
   45.0020   35.4710   44.2380 C   0  0  0  0  0  0  0  0  0  0  0  0
   45.9440   34.9640   43.3290 C   0  0  0  0  0  0  0  0  0  0  0  0
   46.6920   33.8420   43.7530 C   0  0  0  0  0  0  0  0  0  0  0  0
   46.4730   33.3260   44.9720 N   0  0  0  0  0  0  0  0  0  0  0  0
   45.5390   33.8630   45.8170 C   0  0  0  0  0  0  0  0  0  0  0  0
   44.8210   34.9260   45.4340 N   0  0  0  0  0  0  0  0  0  0  0  0
   44.2800   36.5610   43.8200 O   0  0  0  0  0  0  0  0  0  0  0  0
   45.2950   33.3410   47.0930 O   0  0  0  0  0  0  0  0  0  0  0  0
   47.6030   32.6810   48.0560 O   0  0  0  0  0  0  0  0  0  0  0  0
   46.2390   32.0970   47.7830 P   0  0  2  0  0  0  0  0  0  0  0  0
   46.4290   30.8050   46.7080 O   0  0  0  0  0  0  0  0  0  0  0  0
   45.5980   31.5490   49.2250 O   0  0  0  0  0  0  0  0  0  0  0  0
   45.0870   30.2550   48.9880 C   0  0  0  0  0  0  0  0  0  0  0  0
   46.0925   35.4167   42.3375 H   0  0  0  0  0  0  0  0  0  0  0  0
   47.4472   33.3957   43.0892 H   0  0  0  0  0  0  0  0  0  0  0  0
   44.4386   36.9447   42.9213 H   0  0  0  0  0  0  0  0  0  0  0  0
   46.5524   29.9660   47.2189 H   0  0  0  0  0  0  0  0  0  0  0  0
   44.8903   29.7568   49.9488 H   0  0  0  0  0  0  0  0  0  0  0  0
   44.1509   30.3297   48.4152 H   0  0  0  0  0  0  0  0  0  0  0  0
   45.8216   29.6699   48.4152 H   0  0  0  0  0  0  0  0  0  0  0  0
  1  6  2  0
  2  3  2  0
  2  1  1  0
  3  4  1  0
  4  5  2  0
  5  8  1  0
  6  5  1  0
  7  1  1  0
  8 10  1  0
 10  9  2  0
 10 12  1  0
 11 10  1  0
 13 12  1  0
  2 14  1  0
  3 15  1  0
  7 16  1  0
 11 17  1  0
 13 18  1  0
 13 19  1  0
 13 20  1  0
M  ISO  7  14  14  15  14  16   3  17   3  18   8  19   8  20   8
M  END
>  <minimizedAffinity>  (1) 
-4.2290864

>  <minimizedRMSD>  (1) 
0.819091499

$$$$
