
     RDKit          3D

 41 43  0  0  1  0  0  0  0  0999 V2000
   46.9840   29.8990   47.8680 C   0  0  2  0  0  0  0  0  0  0  0  0
   45.5750   30.2120   48.1900 C   0  0  2  0  0  0  0  0  0  0  0  0
   44.8070   29.4440   47.1750 C   0  0  0  0  0  0  0  0  0  0  0  0
   45.5450   28.3160   46.8560 O   0  0  0  0  0  0  0  0  0  0  0  0
   46.7800   28.4350   47.4020 C   0  0  0  0  0  0  0  0  0  0  0  0
   45.2910   31.5570   48.1590 O   0  0  0  0  0  0  0  0  0  0  0  0
   47.4290   32.8630   47.5820 O   0  0  0  0  0  0  0  0  0  0  0  0
   46.1730   32.3110   46.9660 P   0  0  1  0  0  0  0  0  0  0  0  0
   46.6040   31.1740   45.7860 O   0  0  0  0  0  0  0  0  0  0  0  0
   45.3230   33.6170   46.2620 O   0  0  0  0  0  0  0  0  0  0  0  0
   45.1910   35.7400   43.4040 C   0  0  0  0  0  0  0  0  0  0  0  0
   46.2770   35.3030   42.5890 C   0  0  0  0  0  0  0  0  0  0  0  0
   47.0540   34.2350   43.0870 C   0  0  0  0  0  0  0  0  0  0  0  0
   46.7200   33.7070   44.2840 N   0  0  0  0  0  0  0  0  0  0  0  0
   45.6790   34.1570   45.0200 C   0  0  0  0  0  0  0  0  0  0  0  0
   44.9240   35.1730   44.5680 N   0  0  0  0  0  0  0  0  0  0  0  0
   44.4410   36.7830   42.9080 O   0  0  0  0  0  0  0  0  0  0  0  0
   47.8500   29.9610   48.9210 O   0  0  0  0  0  0  0  0  0  0  0  0
   49.3590   31.4870   49.6520 N   0  0  0  0  0  0  0  0  0  0  0  0
   50.2260   31.1140   50.7240 C   0  0  0  0  0  0  0  0  0  0  0  0
   50.9510   29.8570   50.3050 C   0  0  0  0  0  0  0  0  0  0  0  0
   49.9900   29.2020   49.3450 C   0  0  0  0  0  0  0  0  0  0  0  0
   49.1090   30.3430   48.8180 C   0  0  1  0  0  0  0  0  0  0  0  0
   47.4456   30.6045   47.1614 H   0  0  0  0  0  0  0  0  0  0  0  0
   45.3182   29.9325   49.2224 H   0  0  0  0  0  0  0  0  0  0  0  0
   43.8308   29.1492   47.5875 H   0  0  0  0  0  0  0  0  0  0  0  0
   44.6315   30.0569   46.2786 H   0  0  0  0  0  0  0  0  0  0  0  0
   46.8696   27.7573   48.2638 H   0  0  0  0  0  0  0  0  0  0  0  0
   47.5442   28.1714   46.6560 H   0  0  0  0  0  0  0  0  0  0  0  0
   46.9183   30.3447   46.2260 H   0  0  0  0  0  0  0  0  0  0  0  0
   46.4980   35.7750   41.6203 H   0  0  0  0  0  0  0  0  0  0  0  0
   47.9084   33.8435   42.5155 H   0  0  0  0  0  0  0  0  0  0  0  0
   44.6693   37.1842   42.0322 H   0  0  0  0  0  0  0  0  0  0  0  0
   48.4681   31.8336   50.0356 H   0  0  0  0  0  0  0  0  0  0  0  0
   50.9506   31.9185   50.9183 H   0  0  0  0  0  0  0  0  0  0  0  0
   49.6506   30.9406   51.6453 H   0  0  0  0  0  0  0  0  0  0  0  0
   51.9015   30.0985   49.8068 H   0  0  0  0  0  0  0  0  0  0  0  0
   51.2159   29.2108   51.1549 H   0  0  0  0  0  0  0  0  0  0  0  0
   50.5361   28.7230   48.5190 H   0  0  0  0  0  0  0  0  0  0  0  0
   49.3958   28.4140   49.8309 H   0  0  0  0  0  0  0  0  0  0  0  0
   49.3250   30.5915   47.7684 H   0  0  0  0  0  0  0  0  0  0  0  0
  1  2  1  0
  1 18  1  0
  3  2  1  0
  4  3  1  0
  4  5  1  0
  5  1  1  0
  6  2  1  0
  8  7  2  0
  8  6  1  0
  9  8  1  0
 10  8  1  0
 11 16  2  0
 12 13  2  0
 12 11  1  0
 13 14  1  0
 14 15  2  0
 15 10  1  0
 16 15  1  0
 17 11  1  0
 19 20  1  0
 21 20  1  0
 22 21  1  0
 23 18  1  0
 23 22  1  0
 23 19  1  0
  1 24  1  6
  2 25  1  1
  3 26  1  0
  3 27  1  0
  5 28  1  0
  5 29  1  0
  9 30  1  0
 12 31  1  0
 13 32  1  0
 17 33  1  0
 19 34  1  0
 20 35  1  0
 20 36  1  0
 21 37  1  0
 21 38  1  0
 22 39  1  0
 22 40  1  0
 23 41  1  6
M  ISO  8  24  13  25  13  26  13  27  13  28  13  29  13  30   3  31  14
M  ISO  8  32  14  33   3  34   5  35  13  36  13  37  13  38  13  39  13
M  ISO  2  40  13  41  13
M  END
>  <minimizedAffinity>  (1) 
-5.14808464

>  <minimizedRMSD>  (1) 
0.444731057

$$$$
