
     RDKit          3D

 31 32  0  0  1  0  0  0  0  0999 V2000
   45.1800   31.6930   48.0570 O   0  0  0  0  0  0  0  0  0  0  0  0
   47.0390   30.1930   48.1800 C   0  0  2  0  0  0  0  0  0  0  0  0
   45.5750   30.3870   48.2400 C   0  0  2  0  0  0  0  0  0  0  0  0
   45.0590   29.4830   47.1830 C   0  0  0  0  0  0  0  0  0  0  0  0
   45.9320   28.4160   47.0850 O   0  0  0  0  0  0  0  0  0  0  0  0
   47.0390   28.6870   47.8170 C   0  0  0  0  0  0  0  0  0  0  0  0
   47.6940   30.4190   49.3720 O   0  0  0  0  0  0  0  0  0  0  0  0
   49.0070   30.6660   49.6230 C   0  0  0  0  0  0  0  0  0  0  0  0
   49.5870   30.0920   50.5540 O   0  0  0  0  0  0  0  0  0  0  0  0
   47.3680   32.8830   47.4270 O   0  0  0  0  0  0  0  0  0  0  0  0
   46.0720   32.3970   46.8400 P   0  0  1  0  0  0  0  0  0  0  0  0
   46.4060   31.2380   45.6530 O   0  0  0  0  0  0  0  0  0  0  0  0
   45.3000   33.7640   46.1630 O   0  0  0  0  0  0  0  0  0  0  0  0
   45.2190   35.8610   43.2760 C   0  0  0  0  0  0  0  0  0  0  0  0
   46.2870   35.3760   42.4640 C   0  0  0  0  0  0  0  0  0  0  0  0
   47.0260   34.2990   42.9670 C   0  0  0  0  0  0  0  0  0  0  0  0
   46.6820   33.7930   44.1740 N   0  0  0  0  0  0  0  0  0  0  0  0
   45.6570   34.2850   44.9160 C   0  0  0  0  0  0  0  0  0  0  0  0
   44.9450   35.3120   44.4480 N   0  0  0  0  0  0  0  0  0  0  0  0
   44.4930   36.9240   42.7800 O   0  0  0  0  0  0  0  0  0  0  0  0
   47.5623   30.8803   47.4990 H   0  0  0  0  0  0  0  0  0  0  0  0
   45.1745   30.1528   49.2374 H   0  0  0  0  0  0  0  0  0  0  0  0
   44.0554   29.1232   47.4538 H   0  0  0  0  0  0  0  0  0  0  0  0
   44.9864   30.0131   46.2219 H   0  0  0  0  0  0  0  0  0  0  0  0
   47.0307   28.0846   48.7373 H   0  0  0  0  0  0  0  0  0  0  0  0
   47.9408   28.4416   47.2369 H   0  0  0  0  0  0  0  0  0  0  0  0
   49.5580   31.3810   48.9944 H   0  0  0  0  0  0  0  0  0  0  0  0
   46.6524   30.3829   46.0868 H   0  0  0  0  0  0  0  0  0  0  0  0
   46.5189   35.8274   41.4881 H   0  0  0  0  0  0  0  0  0  0  0  0
   47.8649   33.8748   42.3958 H   0  0  0  0  0  0  0  0  0  0  0  0
   44.7233   37.3126   41.8991 H   0  0  0  0  0  0  0  0  0  0  0  0
  1  3  1  0
  2  3  1  0
  2  7  1  0
  4  3  1  0
  5  4  1  0
  5  6  1  0
  6  2  1  0
  7  8  1  0
  8  9  2  0
 11 10  2  0
 11  1  1  0
 12 11  1  0
 13 11  1  0
 14 19  2  0
 15 16  2  0
 15 14  1  0
 16 17  1  0
 17 18  2  0
 18 13  1  0
 19 18  1  0
 20 14  1  0
  2 21  1  6
  3 22  1  1
  4 23  1  0
  4 24  1  0
  6 25  1  0
  6 26  1  0
  8 27  1  0
 12 28  1  0
 15 29  1  0
 16 30  1  0
 20 31  1  0
M  ISO  8  21  13  22  13  23  13  24  13  25  13  26  13  27   6  28   3
M  ISO  3  29  14  30  14  31   3
M  END
>  <minimizedAffinity>  (1) 
-4.5778532

>  <minimizedRMSD>  (1) 
0.296167523

$$$$
