
     RDKit          3D

 32 33  0  0  1  0  0  0  0  0999 V2000
   47.3480   32.8930   47.3860 O   0  0  0  0  0  0  0  0  0  0  0  0
   46.0210   32.4450   46.8370 P   0  0  2  0  0  0  0  0  0  0  0  0
   46.3030   31.2610   45.6570 O   0  0  0  0  0  0  0  0  0  0  0  0
   45.2750   33.8220   46.1490 O   0  0  0  0  0  0  0  0  0  0  0  0
   45.2200   35.8970   43.2480 C   0  0  0  0  0  0  0  0  0  0  0  0
   46.2760   35.3930   42.4390 C   0  0  0  0  0  0  0  0  0  0  0  0
   47.0040   34.3030   42.9490 C   0  0  0  0  0  0  0  0  0  0  0  0
   46.6560   33.8120   44.1590 N   0  0  0  0  0  0  0  0  0  0  0  0
   45.6430   34.3220   44.8950 C   0  0  0  0  0  0  0  0  0  0  0  0
   44.9350   35.3610   44.4300 N   0  0  0  0  0  0  0  0  0  0  0  0
   44.5090   36.9660   42.7450 O   0  0  0  0  0  0  0  0  0  0  0  0
   45.1400   31.7920   48.0870 O   0  0  0  0  0  0  0  0  0  0  0  0
   46.9380   30.2330   48.2170 C   0  0  2  0  0  0  0  0  0  0  0  0
   45.4790   30.4720   48.2670 C   0  0  2  0  0  0  0  0  0  0  0  0
   44.9310   29.5730   47.2180 C   0  0  0  0  0  0  0  0  0  0  0  0
   45.7760   28.4820   47.1180 O   0  0  0  0  0  0  0  0  0  0  0  0
   46.8860   28.7230   47.8580 C   0  0  0  0  0  0  0  0  0  0  0  0
   47.6130   30.4270   49.3810 O   0  0  0  0  0  0  0  0  0  0  0  0
   48.9060   30.6050   49.5180 C   0  0  0  0  0  0  0  0  0  0  0  0
   46.5084   30.3985   46.0974 H   0  0  0  0  0  0  0  0  0  0  0  0
   46.5123   35.8353   41.4599 H   0  0  0  0  0  0  0  0  0  0  0  0
   47.8345   33.8619   42.3782 H   0  0  0  0  0  0  0  0  0  0  0  0
   44.7439   37.3448   41.8610 H   0  0  0  0  0  0  0  0  0  0  0  0
   47.4738   30.9170   47.5424 H   0  0  0  0  0  0  0  0  0  0  0  0
   45.0565   30.2513   49.2584 H   0  0  0  0  0  0  0  0  0  0  0  0
   43.9209   29.2404   47.4994 H   0  0  0  0  0  0  0  0  0  0  0  0
   44.8647   30.0995   46.2545 H   0  0  0  0  0  0  0  0  0  0  0  0
   46.8504   28.1257   48.7810 H   0  0  0  0  0  0  0  0  0  0  0  0
   47.7823   28.4472   47.2831 H   0  0  0  0  0  0  0  0  0  0  0  0
   49.1600   30.6400   50.5877 H   0  0  0  0  0  0  0  0  0  0  0  0
   49.4434   29.7724   49.0406 H   0  0  0  0  0  0  0  0  0  0  0  0
   49.1984   31.5519   49.0406 H   0  0  0  0  0  0  0  0  0  0  0  0
  2  1  2  0
  2 12  1  0
  3  2  1  0
  4  2  1  0
  5 10  2  0
  6  7  2  0
  6  5  1  0
  7  8  1  0
  8  9  2  0
  9  4  1  0
 10  9  1  0
 11  5  1  0
 12 14  1  0
 13 14  1  0
 13 18  1  0
 15 14  1  0
 16 15  1  0
 16 17  1  0
 17 13  1  0
 18 19  1  0
  3 20  1  0
  6 21  1  0
  7 22  1  0
 11 23  1  0
 13 24  1  6
 14 25  1  1
 15 26  1  0
 15 27  1  0
 17 28  1  0
 17 29  1  0
 19 30  1  0
 19 31  1  0
 19 32  1  0
M  ISO  8  20   3  21  14  22  14  23   3  24  13  25  13  26  13  27  13
M  ISO  5  28  13  29  13  30   8  31   8  32   8
M  END
>  <minimizedAffinity>  (1) 
-4.43463373

>  <minimizedRMSD>  (1) 
0.216358796

$$$$
