
     RDKit          3D

 35 36  0  0  1  0  0  0  0  0999 V2000
   45.1520   32.1070   48.1920 O   0  0  0  0  0  0  0  0  0  0  0  0
   46.9730   30.5560   48.2300 C   0  0  2  0  0  0  0  0  0  0  0  0
   45.5210   30.7940   48.3820 C   0  0  2  0  0  0  0  0  0  0  0  0
   44.9000   29.8770   47.3940 C   0  0  0  0  0  0  0  0  0  0  0  0
   45.7330   28.7850   47.2590 O   0  0  0  0  0  0  0  0  0  0  0  0
   46.8990   29.0380   47.9000 C   0  0  0  0  0  0  0  0  0  0  0  0
   47.7220   30.7810   49.3470 O   0  0  0  0  0  0  0  0  0  0  0  0
   48.9850   31.1490   49.3460 C   0  0  0  0  0  0  0  0  0  0  0  0
   49.7510   30.2820   50.3650 C   0  0  0  0  0  0  0  0  0  0  0  0
   47.2010   32.9290   46.8740 O   0  0  0  0  0  0  0  0  0  0  0  0
   45.7290   32.6590   46.7350 P   0  0  1  0  0  0  0  0  0  0  0  0
   45.5090   31.4610   45.5570 O   0  0  0  0  0  0  0  0  0  0  0  0
   45.0030   34.1330   46.2620 O   0  0  0  0  0  0  0  0  0  0  0  0
   44.9740   36.4000   43.4970 C   0  0  0  0  0  0  0  0  0  0  0  0
   45.0240   35.5540   42.3500 C   0  0  0  0  0  0  0  0  0  0  0  0
   45.0670   34.1670   42.5960 C   0  0  0  0  0  0  0  0  0  0  0  0
   45.0590   33.7330   43.8710 N   0  0  0  0  0  0  0  0  0  0  0  0
   45.0120   34.5720   44.9300 C   0  0  0  0  0  0  0  0  0  0  0  0
   44.9700   35.8980   44.7320 N   0  0  0  0  0  0  0  0  0  0  0  0
   44.9310   37.7460   43.2620 O   0  0  0  0  0  0  0  0  0  0  0  0
   47.4638   31.2210   47.5041 H   0  0  0  0  0  0  0  0  0  0  0  0
   45.1859   30.5957   49.4108 H   0  0  0  0  0  0  0  0  0  0  0  0
   43.9116   29.5531   47.7520 H   0  0  0  0  0  0  0  0  0  0  0  0
   44.7663   30.3835   46.4268 H   0  0  0  0  0  0  0  0  0  0  0  0
   46.9422   28.4550   48.8318 H   0  0  0  0  0  0  0  0  0  0  0  0
   47.7463   28.7542   47.2585 H   0  0  0  0  0  0  0  0  0  0  0  0
   49.4119   31.0056   48.3424 H   0  0  0  0  0  0  0  0  0  0  0  0
   49.0670   32.2112   49.6197 H   0  0  0  0  0  0  0  0  0  0  0  0
   49.4793   30.5895   51.3856 H   0  0  0  0  0  0  0  0  0  0  0  0
   49.4870   29.2243   50.2182 H   0  0  0  0  0  0  0  0  0  0  0  0
   50.8332   30.4136   50.2182 H   0  0  0  0  0  0  0  0  0  0  0  0
   45.3490   30.5895   45.9985 H   0  0  0  0  0  0  0  0  0  0  0  0
   45.0287   35.9620   41.3285 H   0  0  0  0  0  0  0  0  0  0  0  0
   45.1064   33.4515   41.7614 H   0  0  0  0  0  0  0  0  0  0  0  0
   44.9353   38.0866   42.3324 H   0  0  0  0  0  0  0  0  0  0  0  0
  1  3  1  0
  2  3  1  0
  2  7  1  0
  4  3  1  0
  5  4  1  0
  5  6  1  0
  6  2  1  0
  8  7  1  0
  8  9  1  0
 11 10  2  0
 11  1  1  0
 12 11  1  0
 13 11  1  0
 14 19  2  0
 15 16  2  0
 15 14  1  0
 16 17  1  0
 17 18  2  0
 18 13  1  0
 19 18  1  0
 20 14  1  0
  2 21  1  6
  3 22  1  1
  4 23  1  0
  4 24  1  0
  6 25  1  0
  6 26  1  0
  8 27  1  0
  8 28  1  0
  9 29  1  0
  9 30  1  0
  9 31  1  0
 12 32  1  0
 15 33  1  0
 16 34  1  0
 20 35  1  0
M  ISO  8  21  13  22  13  23  13  24  13  25  13  26  13  27   8  28   8
M  ISO  7  29   8  30   8  31   8  32   3  33  14  34  14  35   3
M  END
>  <minimizedAffinity>  (1) 
-4.83819628

>  <minimizedRMSD>  (1) 
0.941782594

$$$$
