
     RDKit          3D

 45 47  0  0  1  0  0  0  0  0999 V2000
   50.4580   31.5540   50.5670 O   0  0  0  0  0  0  0  0  0  0  0  0
   50.4050   30.0680   50.5510 P   0  0  1  0  0  0  0  0  0  0  0  0
   51.7830   29.4610   49.7810 O   0  0  0  0  0  0  0  0  0  0  0  0
   50.3740   29.5720   52.1290 O   0  0  0  0  0  0  0  0  0  0  0  0
   52.3060   30.8260   52.7540 C   0  0  2  0  0  0  0  0  0  0  0  0
   51.6530   29.5060   52.6260 C   0  0  2  0  0  0  0  0  0  0  0  0
   52.5430   28.6920   51.8250 C   0  0  0  0  0  0  0  0  0  0  0  0
   53.8390   29.2200   51.9050 O   0  0  0  0  0  0  0  0  0  0  0  0
   53.7760   30.2420   52.7930 C   0  0  0  0  0  0  0  0  0  0  0  0
   52.1180   31.5100   53.8920 O   0  0  0  0  0  0  0  0  0  0  0  0
   51.9150   32.7900   54.0030 C   0  0  0  0  0  0  0  0  0  0  0  0
   52.4560   33.2620   55.3360 C   0  0  0  0  0  0  0  0  0  0  0  0
   48.9790   29.6530   49.7110 O   0  0  0  0  0  0  0  0  0  0  0  0
   47.6380   30.0830   46.4100 C   0  0  0  0  0  0  0  0  0  0  0  0
   48.6930   29.6580   45.5520 C   0  0  0  0  0  0  0  0  0  0  0  0
   49.8800   29.2210   46.1950 C   0  0  0  0  0  0  0  0  0  0  0  0
   49.9380   29.2330   47.5420 N   0  0  0  0  0  0  0  0  0  0  0  0
   48.9170   29.6420   48.3080 C   0  0  0  0  0  0  0  0  0  0  0  0
   47.7870   30.0590   47.7300 N   0  0  0  0  0  0  0  0  0  0  0  0
   46.4830   30.5110   45.8410 O   0  0  0  0  0  0  0  0  0  0  0  0
   45.3670   33.8750   46.8530 N   0  0  0  0  0  0  0  0  0  0  0  0
   45.8550   32.6270   46.9820 C   0  0  0  0  0  0  0  0  0  0  0  0
   46.0010   31.8040   45.8860 C   0  0  0  0  0  0  0  0  0  0  0  0
   45.6280   32.3030   44.6350 C   0  0  0  0  0  0  0  0  0  0  0  0
   45.6630   31.7620   43.4910 O   0  0  0  0  0  0  0  0  0  0  0  0
   45.1370   33.5710   44.5420 N   0  0  0  0  0  0  0  0  0  0  0  0
   45.0120   34.3370   45.6400 C   0  0  0  0  0  0  0  0  0  0  0  0
   44.5660   35.5240   45.6410 O   0  0  0  0  0  0  0  0  0  0  0  0
   52.4408   29.1713   50.4618 H   0  0  0  0  0  0  0  0  0  0  0  0
   51.9717   31.5501   51.9964 H   0  0  0  0  0  0  0  0  0  0  0  0
   51.5030   29.0529   53.6170 H   0  0  0  0  0  0  0  0  0  0  0  0
   52.2062   28.6979   50.7779 H   0  0  0  0  0  0  0  0  0  0  0  0
   52.5390   27.6576   52.1993 H   0  0  0  0  0  0  0  0  0  0  0  0
   54.4972   31.0246   52.5147 H   0  0  0  0  0  0  0  0  0  0  0  0
   54.0222   29.8878   53.8049 H   0  0  0  0  0  0  0  0  0  0  0  0
   52.4320   33.3173   53.1877 H   0  0  0  0  0  0  0  0  0  0  0  0
   50.8371   33.0015   53.9439 H   0  0  0  0  0  0  0  0  0  0  0  0
   51.8990   32.7760   56.1506 H   0  0  0  0  0  0  0  0  0  0  0  0
   53.5215   32.9997   55.4129 H   0  0  0  0  0  0  0  0  0  0  0  0
   52.3406   34.3532   55.4129 H   0  0  0  0  0  0  0  0  0  0  0  0
   48.5933   29.6680   44.4566 H   0  0  0  0  0  0  0  0  0  0  0  0
   50.7409   28.8772   45.6028 H   0  0  0  0  0  0  0  0  0  0  0  0
   45.2653   34.4764   47.6830 H   0  0  0  0  0  0  0  0  0  0  0  0
   46.1418   32.2582   47.9779 H   0  0  0  0  0  0  0  0  0  0  0  0
   44.8595   33.9454   43.6235 H   0  0  0  0  0  0  0  0  0  0  0  0
  2  1  2  0
  2  4  1  0
  3  2  1  0
  4  6  1  0
  5  9  1  0
  5 10  1  0
  6  5  1  0
  7  8  1  0
  7  6  1  0
  8  9  1  0
 10 11  1  0
 11 12  1  0
 13  2  1  0
 14 19  2  0
 15 16  2  0
 15 14  1  0
 16 17  1  0
 17 18  2  0
 18 13  1  0
 19 18  1  0
 20 23  1  0
 20 14  1  0
 21 22  1  0
 23 22  2  0
 24 23  1  0
 25 24  2  0
 26 24  1  0
 26 27  1  0
 27 28  2  0
 27 21  1  0
  3 29  1  0
  5 30  1  6
  6 31  1  1
  7 32  1  0
  7 33  1  0
  9 34  1  0
  9 35  1  0
 11 36  1  0
 11 37  1  0
 12 38  1  0
 12 39  1  0
 12 40  1  0
 15 41  1  0
 16 42  1  0
 21 43  1  0
 22 44  1  0
 26 45  1  0
M  ISO  8  29   3  30  13  31  13  32  13  33  13  34  13  35  13  36   8
M  ISO  8  37   8  38   8  39   8  40   8  41  14  42  14  43   9  44  14
M  ISO  1  45   9
M  END
>  <minimizedAffinity>  (1) 
-4.83072567

>  <minimizedRMSD>  (1) 
7.44948387

$$$$
