
     RDKit          3D

 39 40  0  0  1  0  0  0  0  0999 V2000
   45.1290   32.1450   48.1270 O   0  0  0  0  0  0  0  0  0  0  0  0
   46.9250   30.5730   48.2490 C   0  0  2  0  0  0  0  0  0  0  0  0
   45.4700   30.8410   48.3710 C   0  0  2  0  0  0  0  0  0  0  0  0
   44.8140   29.8970   47.4910 C   0  0  0  0  0  0  0  0  0  0  0  0
   45.6700   28.8070   47.2740 O   0  0  0  0  0  0  0  0  0  0  0  0
   46.7460   29.0120   48.0710 C   0  0  0  0  0  0  0  0  0  0  0  0
   47.6800   30.7640   49.3430 O   0  0  0  0  0  0  0  0  0  0  0  0
   48.9260   31.1390   49.3580 C   0  0  0  0  0  0  0  0  0  0  0  0
   49.6870   30.2550   50.3330 C   0  0  0  0  0  0  0  0  0  0  0  0
   47.2100   32.9330   46.9120 O   0  0  0  0  0  0  0  0  0  0  0  0
   45.7670   32.6370   46.6800 P   0  0  1  0  0  0  0  0  0  0  0  0
   45.6400   31.3930   45.5410 O   0  0  0  0  0  0  0  0  0  0  0  0
   45.0680   34.0880   46.1210 O   0  0  0  0  0  0  0  0  0  0  0  0
   45.1520   36.4230   43.3990 C   0  0  0  0  0  0  0  0  0  0  0  0
   45.8320   35.7130   42.3630 C   0  0  0  0  0  0  0  0  0  0  0  0
   46.2410   34.4120   42.6760 C   0  0  0  0  0  0  0  0  0  0  0  0
   45.9830   33.9070   43.9020 N   0  0  0  0  0  0  0  0  0  0  0  0
   45.3410   34.6060   44.8480 C   0  0  0  0  0  0  0  0  0  0  0  0
   44.9320   35.8470   44.5970 N   0  0  0  0  0  0  0  0  0  0  0  0
   44.7290   37.6970   43.1570 O   0  0  0  0  0  0  0  0  0  0  0  0
   45.2520   38.7650   43.8790 C   0  0  0  0  0  0  0  0  0  0  0  0
   45.9010   39.7970   43.4970 O   0  0  0  0  0  0  0  0  0  0  0  0
   45.0260   38.7050   45.2920 N   0  0  0  0  0  0  0  0  0  0  0  0
   47.4299   31.2047   47.5033 H   0  0  0  0  0  0  0  0  0  0  0  0
   45.1373   30.6981   49.4097 H   0  0  0  0  0  0  0  0  0  0  0  0
   43.8805   29.5466   47.9555 H   0  0  0  0  0  0  0  0  0  0  0  0
   44.5789   30.3827   46.5324 H   0  0  0  0  0  0  0  0  0  0  0  0
   46.5813   28.5401   49.0509 H   0  0  0  0  0  0  0  0  0  0  0  0
   47.6474   28.5707   47.6208 H   0  0  0  0  0  0  0  0  0  0  0  0
   49.3562   31.0358   48.3509 H   0  0  0  0  0  0  0  0  0  0  0  0
   48.9979   32.1913   49.6701 H   0  0  0  0  0  0  0  0  0  0  0  0
   49.4366   30.5459   51.3639 H   0  0  0  0  0  0  0  0  0  0  0  0
   49.4068   29.2038   50.1703 H   0  0  0  0  0  0  0  0  0  0  0  0
   50.7682   30.3757   50.1703 H   0  0  0  0  0  0  0  0  0  0  0  0
   45.5514   30.5250   46.0088 H   0  0  0  0  0  0  0  0  0  0  0  0
   46.0229   36.1624   41.3773 H   0  0  0  0  0  0  0  0  0  0  0  0
   46.7699   33.8036   41.9276 H   0  0  0  0  0  0  0  0  0  0  0  0
   45.3796   39.4555   45.9024 H   0  0  0  0  0  0  0  0  0  0  0  0
   44.5099   37.9113   45.6978 H   0  0  0  0  0  0  0  0  0  0  0  0
  1  3  1  0
  2  3  1  0
  2  7  1  0
  4  3  1  0
  5  4  1  0
  5  6  1  0
  6  2  1  0
  7  8  1  0
  8  9  1  0
 11 10  2  0
 11  1  1  0
 12 11  1  0
 13 11  1  0
 14 19  2  0
 15 16  2  0
 15 14  1  0
 16 17  1  0
 17 18  2  0
 18 13  1  0
 19 18  1  0
 20 14  1  0
 20 21  1  0
 21 23  1  0
 22 21  2  0
  2 24  1  6
  3 25  1  1
  4 26  1  0
  4 27  1  0
  6 28  1  0
  6 29  1  0
  8 30  1  0
  8 31  1  0
  9 32  1  0
  9 33  1  0
  9 34  1  0
 12 35  1  0
 15 36  1  0
 16 37  1  0
 23 38  1  0
 23 39  1  0
M  ISO  8  24  13  25  13  26  13  27  13  28  13  29  13  30   8  31   8
M  ISO  6  32   8  33   8  34   8  35   3  36  14  37  14
M  END
>  <minimizedAffinity>  (1) 
-4.33840752

>  <minimizedRMSD>  (1) 
0.733382881

$$$$
