
     RDKit          3D

 39 41  0  0  1  0  0  0  0  0999 V2000
   48.4390   32.1470   42.1440 C   0  0  0  0  0  0  0  0  0  0  0  0
   48.3500   33.3320   42.7360 C   0  0  0  0  0  0  0  0  0  0  0  0
   49.3680   31.9930   41.0390 C   0  0  0  0  0  0  0  0  0  0  0  0
   50.6680   31.5770   41.3440 C   0  0  0  0  0  0  0  0  0  0  0  0
   51.6010   31.4160   40.2970 C   0  0  0  0  0  0  0  0  0  0  0  0
   51.1830   31.6780   39.0230 N   0  0  0  0  0  0  0  0  0  0  0  0
   49.9250   32.0750   38.7740 C   0  0  0  0  0  0  0  0  0  0  0  0
   49.0650   32.2200   39.7670 N   0  0  0  0  0  0  0  0  0  0  0  0
   49.4100   32.3680   37.4820 N   0  0  0  0  0  0  0  0  0  0  0  0
   49.7740   31.4200   36.5820 C   0  0  0  0  0  0  0  0  0  0  0  0
   49.3960   31.4810   35.2580 C   0  0  0  0  0  0  0  0  0  0  0  0
   48.6150   32.5620   34.8640 C   0  0  0  0  0  0  0  0  0  0  0  0
   48.2460   32.6640   33.6760 O   0  0  0  0  0  0  0  0  0  0  0  0
   48.2740   33.4820   35.7920 N   0  0  0  0  0  0  0  0  0  0  0  0
   48.6590   33.3940   37.0750 C   0  0  0  0  0  0  0  0  0  0  0  0
   48.3820   34.2070   37.9850 O   0  0  0  0  0  0  0  0  0  0  0  0
   47.4400   33.5880   43.8640 C   0  0  0  0  0  0  0  0  0  0  0  0
   44.8310   36.0200   43.2770 C   0  0  1  0  0  0  0  0  0  0  0  0
   46.0870   35.3550   42.6910 C   0  0  0  0  0  0  0  0  0  0  0  0
   46.0590   34.0400   43.3860 C   0  0  2  0  0  0  0  0  0  0  0  0
   45.1410   34.0710   44.3890 O   0  0  0  0  0  0  0  0  0  0  0  0
   44.7930   35.3840   44.6500 C   0  0  0  0  0  0  0  0  0  0  0  0
   44.9970   37.3980   43.3410 O   0  0  0  0  0  0  0  0  0  0  0  0
   47.8229   31.3011   42.4830 H   0  0  0  0  0  0  0  0  0  0  0  0
   48.9812   34.1548   42.3690 H   0  0  0  0  0  0  0  0  0  0  0  0
   50.9595   31.3779   42.3858 H   0  0  0  0  0  0  0  0  0  0  0  0
   52.6317   31.0900   40.5004 H   0  0  0  0  0  0  0  0  0  0  0  0
   50.3913   30.5747   36.9203 H   0  0  0  0  0  0  0  0  0  0  0  0
   49.7003   30.7046   34.5407 H   0  0  0  0  0  0  0  0  0  0  0  0
   47.6951   34.2836   35.5037 H   0  0  0  0  0  0  0  0  0  0  0  0
   47.3295   32.6635   44.4497 H   0  0  0  0  0  0  0  0  0  0  0  0
   47.8714   34.3936   44.4763 H   0  0  0  0  0  0  0  0  0  0  0  0
   43.9069   35.8791   42.6971 H   0  0  0  0  0  0  0  0  0  0  0  0
   46.0108   35.2375   41.6000 H   0  0  0  0  0  0  0  0  0  0  0  0
   47.0149   35.9272   42.8381 H   0  0  0  0  0  0  0  0  0  0  0  0
   45.7506   33.2758   42.6574 H   0  0  0  0  0  0  0  0  0  0  0  0
   45.5182   35.8591   45.3270 H   0  0  0  0  0  0  0  0  0  0  0  0
   43.8185   35.4852   45.1501 H   0  0  0  0  0  0  0  0  0  0  0  0
   45.0313   37.6826   44.2886 H   0  0  0  0  0  0  0  0  0  0  0  0
  1  2  2  0
  2 17  1  0
  3  4  2  0
  3  1  1  0
  5  4  1  0
  6  5  2  0
  7  6  1  0
  7  8  2  0
  8  3  1  0
  9  7  1  0
 10  9  1  0
 11 10  2  0
 12 11  1  0
 12 14  1  0
 13 12  2  0
 14 15  1  0
 15  9  1  0
 15 16  2  0
 18 23  1  0
 18 22  1  0
 19 18  1  0
 19 20  1  0
 20 17  1  0
 20 21  1  0
 21 22  1  0
  1 24  1  0
  2 25  1  0
  4 26  1  0
  5 27  1  0
 10 28  1  0
 11 29  1  0
 14 30  1  0
 17 31  1  0
 17 32  1  0
 18 33  1  6
 19 34  1  0
 19 35  1  0
 20 36  1  6
 22 37  1  0
 22 38  1  0
 23 39  1  0
M  ISO  8  26  14  27  14  28  14  29  14  30   9  31   8  32   8  33  13
M  ISO  6  34  13  35  13  36  13  37  13  38  13  39   3
M  END
>  <minimizedAffinity>  (1) 
-5.75286102

>  <minimizedRMSD>  (1) 
0.986224651

$$$$
