
     RDKit          3D

 27 29  0  0  1  0  0  0  0  0999 V2000
   44.6530   34.1040   42.6340 C   0  0  1  0  0  0  0  0  0  0  0  0
   44.8950   35.5080   42.3980 C   0  0  0  0  0  0  0  0  0  0  0  0
   45.6520   34.5500   41.5660 C   0  0  1  0  0  0  0  0  0  0  0  0
   45.4750   34.1130   45.0050 C   0  0  0  0  0  0  0  0  0  0  0  0
   45.1890   33.3860   43.8080 C   0  0  0  0  0  0  0  0  0  0  0  0
   45.4490   32.0290   43.8080 C   0  0  0  0  0  0  0  0  0  0  0  0
   45.9570   31.4630   44.9280 N   0  0  0  0  0  0  0  0  0  0  0  0
   46.2250   32.1730   46.0630 C   0  0  0  0  0  0  0  0  0  0  0  0
   45.9830   33.5170   46.1090 N   0  0  0  0  0  0  0  0  0  0  0  0
   47.0880   34.2960   41.7460 C   0  0  0  0  0  0  0  0  0  0  0  0
   47.9930   35.3880   42.1570 C   0  0  0  0  0  0  0  0  0  0  0  0
   49.0940   35.9420   41.3760 C   0  0  0  0  0  0  0  0  0  0  0  0
   49.4620   34.8950   42.4000 C   0  0  0  0  0  0  0  0  0  0  0  0
   43.7347   33.5007   42.6860 H   0  0  0  0  0  0  0  0  0  0  0  0
   44.1084   36.1226   41.9358 H   0  0  0  0  0  0  0  0  0  0  0  0
   45.1877   36.3473   43.0460 H   0  0  0  0  0  0  0  0  0  0  0  0
   45.7991   34.4065   40.4854 H   0  0  0  0  0  0  0  0  0  0  0  0
   45.2753   35.1944   45.0298 H   0  0  0  0  0  0  0  0  0  0  0  0
   45.2470   31.4199   42.9146 H   0  0  0  0  0  0  0  0  0  0  0  0
   46.6377   31.6606   46.9446 H   0  0  0  0  0  0  0  0  0  0  0  0
   47.1763   33.5085   42.5090 H   0  0  0  0  0  0  0  0  0  0  0  0
   47.4289   34.0603   40.7271 H   0  0  0  0  0  0  0  0  0  0  0  0
   47.1648   35.9058   42.6629 H   0  0  0  0  0  0  0  0  0  0  0  0
   49.1712   35.7002   40.3057 H   0  0  0  0  0  0  0  0  0  0  0  0
   49.4435   36.9674   41.1854 H   0  0  0  0  0  0  0  0  0  0  0  0
   50.0014   35.1747   43.3170 H   0  0  0  0  0  0  0  0  0  0  0  0
   49.9897   33.9298   42.3996 H   0  0  0  0  0  0  0  0  0  0  0  0
  1  5  1  0
  2  1  1  0
  3 10  1  0
  3  2  1  0
  3  1  1  0
  4  9  2  0
  5  4  1  0
  6  5  2  0
  6  7  1  0
  7  8  2  0
  8  9  1  0
 10 11  1  0
 11 13  1  0
 12 11  1  0
 12 13  1  0
  1 14  1  6
  2 15  1  0
  2 16  1  0
  3 17  1  6
  4 18  1  0
  6 19  1  0
  8 20  1  0
 10 21  1  0
 10 22  1  0
 11 23  1  0
 12 24  1  0
 12 25  1  0
 13 26  1  0
 13 27  1  0
M  ISO  8  14  13  15  13  16  13  17  13  18  14  19  14  20  14  21   8
M  ISO  6  22   8  23  13  24  13  25  13  26  13  27  13
M  END
>  <minimizedAffinity>  (1) 
-4.13636971

>  <minimizedRMSD>  (1) 
2.76909733

$$$$
