
     RDKit          3D

 22 23  0  0  1  0  0  0  0  0999 V2000
   47.3320   33.7060   41.6160 C   0  0  1  0  0  0  0  0  0  0  0  0
   47.5840   34.4500   40.4040 C   0  0  0  0  0  0  0  0  0  0  0  0
   48.6880   34.3640   41.3870 C   0  0  1  0  0  0  0  0  0  0  0  0
   45.5840   35.3360   42.4450 C   0  0  0  0  0  0  0  0  0  0  0  0
   46.4740   34.2490   42.7070 C   0  0  0  0  0  0  0  0  0  0  0  0
   46.5190   33.7300   43.9880 C   0  0  0  0  0  0  0  0  0  0  0  0
   45.7140   34.2800   44.9270 N   0  0  0  0  0  0  0  0  0  0  0  0
   44.8660   35.3180   44.6650 C   0  0  0  0  0  0  0  0  0  0  0  0
   44.7980   35.8530   43.4100 N   0  0  0  0  0  0  0  0  0  0  0  0
   49.0710   35.5240   42.2240 C   0  0  0  0  0  0  0  0  0  0  0  0
   50.2280   35.1060   43.0310 N   0  0  0  0  0  0  0  0  0  0  0  0
   46.9544   32.6922   41.8150 H   0  0  0  0  0  0  0  0  0  0  0  0
   47.0754   35.4120   40.2428 H   0  0  0  0  0  0  0  0  0  0  0  0
   47.4982   34.2122   39.3334 H   0  0  0  0  0  0  0  0  0  0  0  0
   49.7416   34.0503   41.3475 H   0  0  0  0  0  0  0  0  0  0  0  0
   45.5394   35.7609   41.4314 H   0  0  0  0  0  0  0  0  0  0  0  0
   47.1896   32.8943   44.2367 H   0  0  0  0  0  0  0  0  0  0  0  0
   44.2347   35.7252   45.4685 H   0  0  0  0  0  0  0  0  0  0  0  0
   49.3436   36.3773   41.5857 H   0  0  0  0  0  0  0  0  0  0  0  0
   48.2356   35.8382   42.8670 H   0  0  0  0  0  0  0  0  0  0  0  0
   49.9970   35.1894   44.0313 H   0  0  0  0  0  0  0  0  0  0  0  0
   50.4627   34.1270   42.8133 H   0  0  0  0  0  0  0  0  0  0  0  0
  1  5  1  0
  2  3  1  0
  2  1  1  0
  3  1  1  0
  3 10  1  0
  4  5  2  0
  4  9  1  0
  5  6  1  0
  6  7  2  0
  8  7  1  0
  9  8  2  0
 10 11  1  0
  1 12  1  6
  2 13  1  0
  2 14  1  0
  3 15  1  6
  4 16  1  0
  6 17  1  0
  8 18  1  0
 10 19  1  0
 10 20  1  0
 11 21  1  0
 11 22  1  0
M  ISO  8  12  13  13  13  14  13  15  13  16  14  17  14  18  14  19   8
M  ISO  3  20   8  21   5  22   5
M  END
>  <minimizedAffinity>  (1) 
-4.09966612

>  <minimizedRMSD>  (1) 
0.628631771

$$$$
