
     RDKit          3D

 35 37  0  0  1  0  0  0  0  0999 V2000
   46.0800   34.4090   44.0780 C   0  0  1  0  0  0  0  0  0  0  0  0
   45.0790   34.5190   45.1090 C   0  0  0  0  0  0  0  0  0  0  0  0
   46.2780   33.6490   45.3890 C   0  0  1  0  0  0  0  0  0  0  0  0
   44.5780   33.3330   42.4030 C   0  0  0  0  0  0  0  0  0  0  0  0
   45.8970   33.6040   42.8450 C   0  0  0  0  0  0  0  0  0  0  0  0
   46.9450   33.0900   42.1030 C   0  0  0  0  0  0  0  0  0  0  0  0
   46.6580   32.3510   40.9900 N   0  0  0  0  0  0  0  0  0  0  0  0
   45.3820   32.1110   40.5980 C   0  0  0  0  0  0  0  0  0  0  0  0
   44.3250   32.5970   41.2970 N   0  0  0  0  0  0  0  0  0  0  0  0
   46.0560   32.1800   45.4170 C   0  0  0  0  0  0  0  0  0  0  0  0
   45.7730   31.8080   46.7830 N   0  0  0  0  0  0  0  0  0  0  0  0
   46.4720   32.6190   47.7360 C   0  0  0  0  0  0  0  0  0  0  0  0
   47.7820   32.0000   48.1970 C   0  0  0  0  0  0  0  0  0  0  0  0
   47.3720   30.7300   48.9340 C   0  0  0  0  0  0  0  0  0  0  0  0
   46.8270   29.8280   47.8400 C   0  0  0  0  0  0  0  0  0  0  0  0
   45.7060   30.4310   47.0740 C   0  0  0  0  0  0  0  0  0  0  0  0
   46.6218   35.1674   43.4938 H   0  0  0  0  0  0  0  0  0  0  0  0
   44.9588   35.4690   45.6504 H   0  0  0  0  0  0  0  0  0  0  0  0
   43.9919   34.3535   45.1385 H   0  0  0  0  0  0  0  0  0  0  0  0
   47.0726   33.5856   46.1470 H   0  0  0  0  0  0  0  0  0  0  0  0
   43.7314   33.7349   42.9790 H   0  0  0  0  0  0  0  0  0  0  0  0
   47.9876   33.2723   42.4026 H   0  0  0  0  0  0  0  0  0  0  0  0
   45.2000   31.5100   39.6948 H   0  0  0  0  0  0  0  0  0  0  0  0
   45.2044   31.9168   44.7723 H   0  0  0  0  0  0  0  0  0  0  0  0
   46.9448   31.6475   45.0475 H   0  0  0  0  0  0  0  0  0  0  0  0
   46.6884   33.5938   47.2746 H   0  0  0  0  0  0  0  0  0  0  0  0
   45.8257   32.7172   48.6207 H   0  0  0  0  0  0  0  0  0  0  0  0
   48.4216   31.7590   47.3351 H   0  0  0  0  0  0  0  0  0  0  0  0
   48.3628   32.6823   48.8351 H   0  0  0  0  0  0  0  0  0  0  0  0
   48.2397   30.2666   49.4264 H   0  0  0  0  0  0  0  0  0  0  0  0
   46.6367   30.9215   49.7294 H   0  0  0  0  0  0  0  0  0  0  0  0
   47.6435   29.5994   47.1392 H   0  0  0  0  0  0  0  0  0  0  0  0
   46.4327   28.9268   48.3323 H   0  0  0  0  0  0  0  0  0  0  0  0
   44.7857   30.2627   47.6526 H   0  0  0  0  0  0  0  0  0  0  0  0
   45.7466   29.9386   46.0912 H   0  0  0  0  0  0  0  0  0  0  0  0
  1  2  1  0
  1  3  1  0
  2  3  1  0
  3 10  1  0
  4  5  2  0
  5  1  1  0
  6  5  1  0
  7  6  2  0
  8  7  1  0
  8  9  2  0
  9  4  1  0
 10 11  1  0
 11 16  1  0
 11 12  1  0
 12 13  1  0
 13 14  1  0
 15 14  1  0
 16 15  1  0
  1 17  1  6
  2 18  1  0
  2 19  1  0
  3 20  1  1
  4 21  1  0
  6 22  1  0
  8 23  1  0
 10 24  1  0
 10 25  1  0
 12 26  1  0
 12 27  1  0
 13 28  1  0
 13 29  1  0
 14 30  1  0
 14 31  1  0
 15 32  1  0
 15 33  1  0
 16 34  1  0
 16 35  1  0
M  ISO  8  17  13  18  13  19  13  20  13  21  14  22  14  23  14  24   8
M  ISO  8  25   8  26  13  27  13  28  13  29  13  30  13  31  13  32  13
M  ISO  3  33  13  34  13  35  13
M  END
>  <minimizedAffinity>  (1) 
-3.45789337

>  <minimizedRMSD>  (1) 
6.05142164

$$$$
