
     RDKit          3D

 35 36  0  0  1  0  0  0  0  0999 V2000
   49.0040   33.3920   42.3540 C   0  0  0  0  0  0  0  0  0  0  0  0
   47.8840   32.9200   42.8970 C   0  0  0  0  0  0  0  0  0  0  0  0
   49.5460   32.7260   41.1780 C   0  0  0  0  0  0  0  0  0  0  0  0
   50.8080   32.1350   41.2960 C   0  0  0  0  0  0  0  0  0  0  0  0
   51.3560   31.4830   40.1680 C   0  0  0  0  0  0  0  0  0  0  0  0
   50.6310   31.4610   39.0250 N   0  0  0  0  0  0  0  0  0  0  0  0
   49.4060   32.0500   38.9590 C   0  0  0  0  0  0  0  0  0  0  0  0
   48.9090   32.6560   40.0250 N   0  0  0  0  0  0  0  0  0  0  0  0
   48.6180   32.0600   37.8160 O   0  0  0  0  0  0  0  0  0  0  0  0
   48.6150   33.0950   35.4030 O   0  0  0  0  0  0  0  0  0  0  0  0
   48.3920   33.4580   36.8520 P   0  0  0  0  0  0  0  0  0  0  0  0
   46.8250   34.0760   36.9690 O   0  0  0  0  0  0  0  0  0  0  0  0
   49.5570   34.5950   37.3460 O   0  0  0  0  0  0  0  0  0  0  0  0
   47.2670   33.5370   44.0920 C   0  0  0  0  0  0  0  0  0  0  0  0
   44.6330   36.0100   43.8210 C   0  0  1  0  0  0  0  0  0  0  0  0
   45.8100   35.3460   43.0990 C   0  0  0  0  0  0  0  0  0  0  0  0
   45.8510   34.0300   43.7900 C   0  0  2  0  0  0  0  0  0  0  0  0
   45.0690   34.0700   44.9060 O   0  0  0  0  0  0  0  0  0  0  0  0
   44.7470   35.3810   45.1780 C   0  0  0  0  0  0  0  0  0  0  0  0
   44.8100   37.3870   43.8500 O   0  0  0  0  0  0  0  0  0  0  0  0
   49.5102   34.2682   42.7853 H   0  0  0  0  0  0  0  0  0  0  0  0
   47.4013   32.0424   42.4423 H   0  0  0  0  0  0  0  0  0  0  0  0
   51.3618   32.1766   42.2455 H   0  0  0  0  0  0  0  0  0  0  0  0
   52.3459   31.0059   40.2176 H   0  0  0  0  0  0  0  0  0  0  0  0
   46.5789   34.1731   37.9230 H   0  0  0  0  0  0  0  0  0  0  0  0
   49.5890   34.6262   38.3350 H   0  0  0  0  0  0  0  0  0  0  0  0
   47.2228   32.7908   44.8990 H   0  0  0  0  0  0  0  0  0  0  0  0
   47.8793   34.3992   44.3948 H   0  0  0  0  0  0  0  0  0  0  0  0
   43.6448   35.8687   43.3590 H   0  0  0  0  0  0  0  0  0  0  0  0
   46.7439   35.9090   43.2437 H   0  0  0  0  0  0  0  0  0  0  0  0
   45.6991   35.2845   42.0063 H   0  0  0  0  0  0  0  0  0  0  0  0
   45.4414   33.2829   43.0943 H   0  0  0  0  0  0  0  0  0  0  0  0
   45.5388   35.8646   45.7689 H   0  0  0  0  0  0  0  0  0  0  0  0
   43.8257   35.4787   45.7711 H   0  0  0  0  0  0  0  0  0  0  0  0
   44.8496   37.6949   44.7901 H   0  0  0  0  0  0  0  0  0  0  0  0
  1  2  2  0
  2 14  1  0
  3  4  2  0
  3  1  1  0
  5  4  1  0
  6  5  2  0
  7  6  1  0
  7  8  2  0
  8  3  1  0
  9  7  1  0
 10 11  2  0
 11 12  1  0
 11 13  1  0
 11  9  1  0
 15 20  1  0
 15 19  1  0
 16 17  1  0
 16 15  1  0
 17 14  1  0
 17 18  1  0
 18 19  1  0
  1 21  1  0
  2 22  1  0
  4 23  1  0
  5 24  1  0
 12 25  1  0
 13 26  1  0
 14 27  1  0
 14 28  1  0
 15 29  1  6
 16 30  1  0
 16 31  1  0
 17 32  1  6
 19 33  1  0
 19 34  1  0
 20 35  1  0
M  ISO  8  23  14  24  14  25   3  26   3  27   8  28   8  29  13  30  13
M  ISO  5  31  13  32  13  33  13  34  13  35   3
M  END
>  <minimizedAffinity>  (1) 
-5.5776453

>  <minimizedRMSD>  (1) 
0.82789582

$$$$
