
     RDKit          3D

 45 48  0  0  1  0  0  0  0  0999 V2000
   46.0130   31.9730   46.4770 N   0  0  0  0  0  0  0  0  0  0  0  0
   45.2280   32.5360   47.5330 C   0  0  0  0  0  0  0  0  0  0  0  0
   45.9580   32.4700   48.8630 C   0  0  0  0  0  0  0  0  0  0  0  0
   46.0890   30.9790   49.1880 C   0  0  0  0  0  0  0  0  0  0  0  0
   46.9880   30.4090   48.1260 C   0  0  0  0  0  0  0  0  0  0  0  0
   46.4240   30.6740   46.7530 C   0  0  2  0  0  0  0  0  0  0  0  0
   44.6930   29.5800   44.4950 Cl  0  0  0  0  0  0  0  0  0  0  0  0
   46.4570   29.4180   44.5560 C   0  0  0  0  0  0  0  0  0  0  0  0
   47.1080   29.9880   45.6660 C   0  0  0  0  0  0  0  0  0  0  0  0
   48.4690   29.7780   45.5660 C   0  0  0  0  0  0  0  0  0  0  0  0
   49.1360   29.1180   44.5560 C   0  0  0  0  0  0  0  0  0  0  0  0
   48.3940   28.5980   43.5160 C   0  0  0  0  0  0  0  0  0  0  0  0
   47.0260   28.7460   43.5060 C   0  0  0  0  0  0  0  0  0  0  0  0
   46.0770   28.0960   42.2010 Cl  0  0  0  0  0  0  0  0  0  0  0  0
   46.8250   32.8900   45.7670 C   0  0  0  0  0  0  0  0  0  0  0  0
   46.3140   34.0650   43.4950 C   0  0  1  0  0  0  0  0  0  0  0  0
   45.2440   33.1770   43.7630 C   0  0  0  0  0  0  0  0  0  0  0  0
   45.9220   33.7500   44.9530 C   0  0  1  0  0  0  0  0  0  0  0  0
   47.8640   32.3180   42.6250 C   0  0  0  0  0  0  0  0  0  0  0  0
   47.6760   33.6590   43.0600 C   0  0  0  0  0  0  0  0  0  0  0  0
   48.7580   34.4990   43.0550 C   0  0  0  0  0  0  0  0  0  0  0  0
   49.9590   33.9930   42.6300 N   0  0  0  0  0  0  0  0  0  0  0  0
   50.1200   32.7210   42.2200 C   0  0  0  0  0  0  0  0  0  0  0  0
   49.0660   31.8510   42.2090 N   0  0  0  0  0  0  0  0  0  0  0  0
   45.0112   33.5880   47.2958 H   0  0  0  0  0  0  0  0  0  0  0  0
   44.2979   31.9552   47.6199 H   0  0  0  0  0  0  0  0  0  0  0  0
   46.9521   32.9333   48.7787 H   0  0  0  0  0  0  0  0  0  0  0  0
   45.4161   33.0122   49.6519 H   0  0  0  0  0  0  0  0  0  0  0  0
   46.5361   30.8412   50.1836 H   0  0  0  0  0  0  0  0  0  0  0  0
   45.1094   30.4788   49.2023 H   0  0  0  0  0  0  0  0  0  0  0  0
   47.9811   30.8755   48.2048 H   0  0  0  0  0  0  0  0  0  0  0  0
   47.0648   29.3216   48.2734 H   0  0  0  0  0  0  0  0  0  0  0  0
   45.4514   30.1638   46.8142 H   0  0  0  0  0  0  0  0  0  0  0  0
   49.0884   30.1811   46.3808 H   0  0  0  0  0  0  0  0  0  0  0  0
   50.2303   29.0090   44.5789 H   0  0  0  0  0  0  0  0  0  0  0  0
   48.8957   28.0651   42.6948 H   0  0  0  0  0  0  0  0  0  0  0  0
   47.3978   33.5093   46.4730 H   0  0  0  0  0  0  0  0  0  0  0  0
   47.5383   32.3568   45.1213 H   0  0  0  0  0  0  0  0  0  0  0  0
   46.3878   34.9378   42.8296 H   0  0  0  0  0  0  0  0  0  0  0  0
   44.2153   33.4878   43.5283 H   0  0  0  0  0  0  0  0  0  0  0  0
   45.0237   32.1470   43.4459 H   0  0  0  0  0  0  0  0  0  0  0  0
   45.6211   34.3156   45.8472 H   0  0  0  0  0  0  0  0  0  0  0  0
   47.0019   31.6348   42.6263 H   0  0  0  0  0  0  0  0  0  0  0  0
   48.6661   35.5454   43.3814 H   0  0  0  0  0  0  0  0  0  0  0  0
   51.1116   32.3777   41.8899 H   0  0  0  0  0  0  0  0  0  0  0  0
  1  6  1  0
  1  2  1  0
  2  3  1  0
  3  4  1  0
  5  4  1  0
  6  5  1  0
  7  8  1  0
  8  9  2  0
  9  6  1  0
 10  9  1  0
 11 10  2  0
 12 11  1  0
 13 12  2  0
 13  8  1  0
 14 13  1  0
 15  1  1  0
 16 17  1  0
 16 18  1  0
 17 18  1  0
 18 15  1  0
 19 20  2  0
 20 16  1  0
 21 20  1  0
 22 21  2  0
 23 22  1  0
 24 23  2  0
 24 19  1  0
  2 25  1  0
  2 26  1  0
  3 27  1  0
  3 28  1  0
  4 29  1  0
  4 30  1  0
  5 31  1  0
  5 32  1  0
  6 33  1  1
 10 34  1  0
 11 35  1  0
 12 36  1  0
 15 37  1  0
 15 38  1  0
 16 39  1  6
 17 40  1  0
 17 41  1  0
 18 42  1  1
 19 43  1  0
 21 44  1  0
 23 45  1  0
M  ISO  8  25  13  26  13  27  13  28  13  29  13  30  13  31  13  32  13
M  ISO  8  33  13  34  14  35  14  36  14  37   8  38   8  39  13  40  13
M  ISO  5  41  13  42  13  43  14  44  14  45  14
M  END
>  <minimizedAffinity>  (1) 
-4.4723134

>  <minimizedRMSD>  (1) 
3.1103611

$$$$
