
     RDKit          3D

 42 44  0  0  1  0  0  0  0  0999 V2000
   48.5490   31.9890   43.1110 C   0  0  0  0  0  0  0  0  0  0  0  0
   47.8980   33.1220   43.3390 C   0  0  0  0  0  0  0  0  0  0  0  0
   49.3230   31.8630   41.8770 C   0  0  0  0  0  0  0  0  0  0  0  0
   50.7220   31.6930   42.0260 C   0  0  0  0  0  0  0  0  0  0  0  0
   51.4960   31.5690   40.8710 C   0  0  0  0  0  0  0  0  0  0  0  0
   50.8680   31.6190   39.6560 N   0  0  0  0  0  0  0  0  0  0  0  0
   49.5390   31.7830   39.5680 C   0  0  0  0  0  0  0  0  0  0  0  0
   48.7890   31.9010   40.6650 N   0  0  0  0  0  0  0  0  0  0  0  0
   49.5270   32.8410   37.3100 C   0  0  2  0  0  0  0  0  0  0  0  0
   48.9120   31.8290   38.2150 C   0  0  2  0  0  0  0  0  0  0  0  0
   47.5730   32.1470   38.4020 O   0  0  0  0  0  0  0  0  0  0  0  0
   47.4140   33.5030   38.1790 C   0  0  0  0  0  0  0  0  0  0  0  0
   48.4990   33.9320   37.2310 C   0  0  1  0  0  0  0  0  0  0  0  0
   49.6340   32.2700   36.0220 O   0  0  0  0  0  0  0  0  0  0  0  0
   49.0040   35.1690   37.6260 O   0  0  0  0  0  0  0  0  0  0  0  0
   47.0930   33.3470   44.5490 C   0  0  0  0  0  0  0  0  0  0  0  0
   44.5870   35.8870   43.9610 C   0  0  1  0  0  0  0  0  0  0  0  0
   45.6880   35.0400   43.3070 C   0  0  0  0  0  0  0  0  0  0  0  0
   45.6820   33.8430   44.1910 C   0  0  2  0  0  0  0  0  0  0  0  0
   44.9330   34.0960   45.3140 O   0  0  0  0  0  0  0  0  0  0  0  0
   44.6900   35.4450   45.3980 C   0  0  0  0  0  0  0  0  0  0  0  0
   44.8350   37.2400   43.7760 O   0  0  0  0  0  0  0  0  0  0  0  0
   48.5074   31.1618   43.8349 H   0  0  0  0  0  0  0  0  0  0  0  0
   47.9630   33.9268   42.5919 H   0  0  0  0  0  0  0  0  0  0  0  0
   51.1848   31.6597   43.0234 H   0  0  0  0  0  0  0  0  0  0  0  0
   52.5858   31.4342   40.9359 H   0  0  0  0  0  0  0  0  0  0  0  0
   50.5134   33.1850   37.6546 H   0  0  0  0  0  0  0  0  0  0  0  0
   49.0581   30.8520   37.7312 H   0  0  0  0  0  0  0  0  0  0  0  0
   46.4270   33.6978   37.7341 H   0  0  0  0  0  0  0  0  0  0  0  0
   47.4795   34.0627   39.1237 H   0  0  0  0  0  0  0  0  0  0  0  0
   48.1505   34.0651   36.1962 H   0  0  0  0  0  0  0  0  0  0  0  0
   49.8157   31.3004   36.1049 H   0  0  0  0  0  0  0  0  0  0  0  0
   49.0236   35.2170   38.6146 H   0  0  0  0  0  0  0  0  0  0  0  0
   47.0110   32.4024   45.1067 H   0  0  0  0  0  0  0  0  0  0  0  0
   47.5887   34.1153   45.1605 H   0  0  0  0  0  0  0  0  0  0  0  0
   43.5767   35.7509   43.5478 H   0  0  0  0  0  0  0  0  0  0  0  0
   45.4343   34.7780   42.2692 H   0  0  0  0  0  0  0  0  0  0  0  0
   46.6631   35.5430   43.2285 H   0  0  0  0  0  0  0  0  0  0  0  0
   45.2175   33.0205   43.6274 H   0  0  0  0  0  0  0  0  0  0  0  0
   45.5176   35.9604   45.9073 H   0  0  0  0  0  0  0  0  0  0  0  0
   43.7847   35.6768   45.9782 H   0  0  0  0  0  0  0  0  0  0  0  0
   44.9164   37.6841   44.6571 H   0  0  0  0  0  0  0  0  0  0  0  0
  1  2  2  0
  2 16  1  0
  3  4  2  0
  3  1  1  0
  5  4  1  0
  6  5  2  0
  7  6  1  0
  7  8  2  0
  8  3  1  0
  9 14  1  0
  9 10  1  0
 10 11  1  0
 10  7  1  0
 12 11  1  0
 13  9  1  0
 13 15  1  0
 13 12  1  0
 17 21  1  0
 18 17  1  0
 18 19  1  0
 19 16  1  0
 19 20  1  0
 20 21  1  0
 22 17  1  0
  1 23  1  0
  2 24  1  0
  4 25  1  0
  5 26  1  0
  9 27  1  1
 10 28  1  6
 12 29  1  0
 12 30  1  0
 13 31  1  6
 14 32  1  0
 15 33  1  0
 16 34  1  0
 16 35  1  0
 17 36  1  6
 18 37  1  0
 18 38  1  0
 19 39  1  6
 21 40  1  0
 21 41  1  0
 22 42  1  0
M  ISO  8  25  14  26  14  27  13  28  13  29  13  30  13  31  13  32   3
M  ISO  8  33   3  34   8  35   8  36  13  37  13  38  13  39  13  40  13
M  ISO  2  41  13  42   3
M  END
>  <minimizedAffinity>  (1) 
-5.54011011

>  <minimizedRMSD>  (1) 
0.530004978

$$$$
