
     RDKit          3D

 41 43  0  0  1  0  0  0  0  0999 V2000
   45.8680   31.6130   46.7200 N   0  0  0  0  0  0  0  0  0  0  0  0
   46.2570   32.5340   47.7160 C   0  0  0  0  0  0  0  0  0  0  0  0
   47.6720   32.2690   48.2410 C   0  0  0  0  0  0  0  0  0  0  0  0
   47.6130   30.9390   48.9480 C   0  0  0  0  0  0  0  0  0  0  0  0
   47.2550   29.9190   47.8830 C   0  0  0  0  0  0  0  0  0  0  0  0
   46.0370   30.2710   47.0920 C   0  0  2  0  0  0  0  0  0  0  0  0
   46.1410   31.9960   45.3710 C   0  0  0  0  0  0  0  0  0  0  0  0
   46.5490   34.1880   44.0140 C   0  0  1  0  0  0  0  0  0  0  0  0
   45.1830   34.1690   44.3970 C   0  0  0  0  0  0  0  0  0  0  0  0
   46.1250   33.4790   45.3170 C   0  0  1  0  0  0  0  0  0  0  0  0
   46.3110   32.8970   41.8910 C   0  0  0  0  0  0  0  0  0  0  0  0
   47.1550   33.3380   42.9520 C   0  0  0  0  0  0  0  0  0  0  0  0
   48.4740   32.9650   42.9570 C   0  0  0  0  0  0  0  0  0  0  0  0
   48.9130   32.1780   41.9280 N   0  0  0  0  0  0  0  0  0  0  0  0
   48.0970   31.7680   40.9250 C   0  0  0  0  0  0  0  0  0  0  0  0
   46.7760   32.1200   40.8890 N   0  0  0  0  0  0  0  0  0  0  0  0
   45.9630   29.4300   46.0000 O   0  0  0  0  0  0  0  0  0  0  0  0
   44.8870   27.3200   44.9960 O   0  0  0  0  0  0  0  0  0  0  0  0
   44.6340   28.3710   46.0790 P   0  0  0  0  0  0  0  0  0  0  0  0
   44.5660   27.5650   47.5630 O   0  0  0  0  0  0  0  0  0  0  0  0
   43.2320   29.2330   45.7390 O   0  0  0  0  0  0  0  0  0  0  0  0
   46.2227   33.5481   47.2913 H   0  0  0  0  0  0  0  0  0  0  0  0
   45.5615   32.4253   48.5612 H   0  0  0  0  0  0  0  0  0  0  0  0
   48.3872   32.2263   47.4063 H   0  0  0  0  0  0  0  0  0  0  0  0
   48.0062   33.0694   48.9175 H   0  0  0  0  0  0  0  0  0  0  0  0
   48.5891   30.6993   49.3949 H   0  0  0  0  0  0  0  0  0  0  0  0
   46.8757   30.9472   49.7643 H   0  0  0  0  0  0  0  0  0  0  0  0
   48.1043   29.8297   47.1897 H   0  0  0  0  0  0  0  0  0  0  0  0
   47.0349   28.9762   48.4052 H   0  0  0  0  0  0  0  0  0  0  0  0
   45.1949   30.1241   47.7843 H   0  0  0  0  0  0  0  0  0  0  0  0
   47.1286   31.6196   45.0662 H   0  0  0  0  0  0  0  0  0  0  0  0
   45.3880   31.5751   44.6885 H   0  0  0  0  0  0  0  0  0  0  0  0
   47.2049   35.0122   43.6971 H   0  0  0  0  0  0  0  0  0  0  0  0
   44.7017   35.1036   44.7209 H   0  0  0  0  0  0  0  0  0  0  0  0
   44.2621   33.8521   43.8857 H   0  0  0  0  0  0  0  0  0  0  0  0
   46.3853   33.5355   46.3843 H   0  0  0  0  0  0  0  0  0  0  0  0
   45.2529   33.1976   41.8884 H   0  0  0  0  0  0  0  0  0  0  0  0
   49.1545   33.2868   43.7591 H   0  0  0  0  0  0  0  0  0  0  0  0
   48.5073   31.1379   40.1221 H   0  0  0  0  0  0  0  0  0  0  0  0
   44.6216   28.2243   48.2995 H   0  0  0  0  0  0  0  0  0  0  0  0
   42.7958   29.5012   46.5863 H   0  0  0  0  0  0  0  0  0  0  0  0
  1  6  1  0
  1  2  1  0
  2  3  1  0
  3  4  1  0
  5  4  1  0
  6  5  1  0
  7  1  1  0
  8  9  1  0
  8 10  1  0
  9 10  1  0
 10  7  1  0
 11 12  2  0
 12 13  1  0
 12  8  1  0
 14 13  2  0
 15 14  1  0
 16 15  2  0
 16 11  1  0
 17 19  1  0
 17  6  1  0
 18 19  2  0
 19 20  1  0
 21 19  1  0
  2 22  1  0
  2 23  1  0
  3 24  1  0
  3 25  1  0
  4 26  1  0
  4 27  1  0
  5 28  1  0
  5 29  1  0
  6 30  1  1
  7 31  1  0
  7 32  1  0
  8 33  1  1
  9 34  1  0
  9 35  1  0
 10 36  1  1
 11 37  1  0
 13 38  1  0
 15 39  1  0
 20 40  1  0
 21 41  1  0
M  ISO  8  22  13  23  13  24  13  25  13  26  13  27  13  28  13  29  13
M  ISO  8  30  13  31   8  32   8  33  13  34  13  35  13  36  13  37  14
M  ISO  4  38  14  39  14  40   3  41   3
M  END
>  <minimizedAffinity>  (1) 
-4.12024975

>  <minimizedRMSD>  (1) 
1.51913416

$$$$
