
     RDKit          3D

 47 50  0  0  1  0  0  0  0  0999 V2000
   46.4580   31.8750   46.4410 N   0  0  0  0  0  0  0  0  0  0  0  0
   46.6060   32.6530   47.6280 C   0  0  0  0  0  0  0  0  0  0  0  0
   47.8400   32.2470   48.4060 C   0  0  0  0  0  0  0  0  0  0  0  0
   47.5580   30.8190   48.8900 C   0  0  0  0  0  0  0  0  0  0  0  0
   47.5280   29.9870   47.6300 C   0  0  0  0  0  0  0  0  0  0  0  0
   46.5030   30.5000   46.6580 C   0  0  2  0  0  0  0  0  0  0  0  0
   46.4470   29.7660   45.4500 N   0  0  0  0  0  0  0  0  0  0  0  0
   45.2570   29.7360   44.7030 C   0  0  0  0  0  0  0  0  0  0  0  0
   45.6890   29.9340   43.2370 C   0  0  0  0  0  0  0  0  0  0  0  0
   47.1200   29.4410   43.2610 C   0  0  0  0  0  0  0  0  0  0  0  0
   47.5850   29.9280   44.5970 C   0  0  0  0  0  0  0  0  0  0  0  0
   46.9970   32.4310   45.2560 C   0  0  0  0  0  0  0  0  0  0  0  0
   46.4350   34.3280   43.5540 C   0  0  1  0  0  0  0  0  0  0  0  0
   45.2380   33.6180   43.8210 C   0  0  0  0  0  0  0  0  0  0  0  0
   46.2250   33.6670   44.9330 C   0  0  1  0  0  0  0  0  0  0  0  0
   47.2810   32.8370   41.7400 C   0  0  0  0  0  0  0  0  0  0  0  0
   47.5640   33.8230   42.7280 C   0  0  0  0  0  0  0  0  0  0  0  0
   48.8590   34.2520   42.8720 C   0  0  0  0  0  0  0  0  0  0  0  0
   49.8060   33.6990   42.0470 N   0  0  0  0  0  0  0  0  0  0  0  0
   49.5210   32.7680   41.1180 C   0  0  0  0  0  0  0  0  0  0  0  0
   48.2420   32.3160   40.9460 N   0  0  0  0  0  0  0  0  0  0  0  0
   46.6905   33.7144   47.3517 H   0  0  0  0  0  0  0  0  0  0  0  0
   45.7249   32.4836   48.2644 H   0  0  0  0  0  0  0  0  0  0  0  0
   48.7285   32.2663   47.7577 H   0  0  0  0  0  0  0  0  0  0  0  0
   48.0429   32.9322   49.2423 H   0  0  0  0  0  0  0  0  0  0  0  0
   48.3553   30.4733   49.5644 H   0  0  0  0  0  0  0  0  0  0  0  0
   46.6183   30.7495   49.4575 H   0  0  0  0  0  0  0  0  0  0  0  0
   48.5197   30.0207   47.1553 H   0  0  0  0  0  0  0  0  0  0  0  0
   47.2604   28.9555   47.9027 H   0  0  0  0  0  0  0  0  0  0  0  0
   45.5724   30.3062   47.2116 H   0  0  0  0  0  0  0  0  0  0  0  0
   44.7489   28.7683   44.8272 H   0  0  0  0  0  0  0  0  0  0  0  0
   44.5494   30.5124   45.0294 H   0  0  0  0  0  0  0  0  0  0  0  0
   45.6360   30.9930   42.9443 H   0  0  0  0  0  0  0  0  0  0  0  0
   45.0509   29.4079   42.5118 H   0  0  0  0  0  0  0  0  0  0  0  0
   47.1675   28.3440   43.1951 H   0  0  0  0  0  0  0  0  0  0  0  0
   47.7299   29.7980   42.4181 H   0  0  0  0  0  0  0  0  0  0  0  0
   48.4313   29.3252   44.9582 H   0  0  0  0  0  0  0  0  0  0  0  0
   47.9399   30.9687   44.5640 H   0  0  0  0  0  0  0  0  0  0  0  0
   48.0567   32.6825   45.4102 H   0  0  0  0  0  0  0  0  0  0  0  0
   46.9259   31.7093   44.4289 H   0  0  0  0  0  0  0  0  0  0  0  0
   46.6102   35.3311   43.1378 H   0  0  0  0  0  0  0  0  0  0  0  0
   44.2929   34.1728   43.9155 H   0  0  0  0  0  0  0  0  0  0  0  0
   44.7222   32.7927   43.3084 H   0  0  0  0  0  0  0  0  0  0  0  0
   46.2325   33.9868   45.9855 H   0  0  0  0  0  0  0  0  0  0  0  0
   46.2449   32.4878   41.6193 H   0  0  0  0  0  0  0  0  0  0  0  0
   49.1284   35.0112   43.6211 H   0  0  0  0  0  0  0  0  0  0  0  0
   50.3280   32.3651   40.4884 H   0  0  0  0  0  0  0  0  0  0  0  0
  1  6  1  0
  1  2  1  0
  2  3  1  0
  3  4  1  0
  5  4  1  0
  6  5  1  0
  7  8  1  0
  7  6  1  0
  9 10  1  0
  9  8  1  0
 10 11  1  0
 11  7  1  0
 12  1  1  0
 13 14  1  0
 13 15  1  0
 14 15  1  0
 15 12  1  0
 16 17  2  0
 17 18  1  0
 17 13  1  0
 19 18  2  0
 20 19  1  0
 21 20  2  0
 21 16  1  0
  2 22  1  0
  2 23  1  0
  3 24  1  0
  3 25  1  0
  4 26  1  0
  4 27  1  0
  5 28  1  0
  5 29  1  0
  6 30  1  1
  8 31  1  0
  8 32  1  0
  9 33  1  0
  9 34  1  0
 10 35  1  0
 10 36  1  0
 11 37  1  0
 11 38  1  0
 12 39  1  0
 12 40  1  0
 13 41  1  1
 14 42  1  0
 14 43  1  0
 15 44  1  1
 16 45  1  0
 18 46  1  0
 20 47  1  0
M  ISO  8  22  13  23  13  24  13  25  13  26  13  27  13  28  13  29  13
M  ISO  8  30  13  31  13  32  13  33  13  34  13  35  13  36  13  37  13
M  ISO  8  38  13  39   8  40   8  41  13  42  13  43  13  44  13  45  14
M  ISO  2  46  14  47  14
M  END
>  <minimizedAffinity>  (1) 
-4.02393007

>  <minimizedRMSD>  (1) 
1.96197867

$$$$
