
     RDKit          3D

 36 38  0  0  1  0  0  0  0  0999 V2000
   46.1360   32.4090   45.3060 C   0  0  0  0  0  0  0  0  0  0  0  0
   45.7950   31.9400   46.6150 N   0  0  0  0  0  0  0  0  0  0  0  0
   46.3430   32.6710   47.6910 C   0  0  0  0  0  0  0  0  0  0  0  0
   47.6820   32.0940   48.1610 C   0  0  0  0  0  0  0  0  0  0  0  0
   47.3590   30.7370   48.7460 C   0  0  0  0  0  0  0  0  0  0  0  0
   46.8360   29.9120   47.5840 C   0  0  0  0  0  0  0  0  0  0  0  0
   45.7230   30.5580   46.8310 C   0  0  1  0  0  0  0  0  0  0  0  0
   44.5390   30.2800   47.5300 O   0  0  0  0  0  0  0  0  0  0  0  0
   45.8670   34.6960   44.0780 C   0  0  1  0  0  0  0  0  0  0  0  0
   44.9220   34.6580   45.1310 C   0  0  0  0  0  0  0  0  0  0  0  0
   46.1740   33.8910   45.3570 C   0  0  1  0  0  0  0  0  0  0  0  0
   44.4860   33.4860   42.3900 C   0  0  0  0  0  0  0  0  0  0  0  0
   45.7760   33.9250   42.8060 C   0  0  0  0  0  0  0  0  0  0  0  0
   46.8690   33.6240   42.0360 C   0  0  0  0  0  0  0  0  0  0  0  0
   46.6630   32.9090   40.8900 N   0  0  0  0  0  0  0  0  0  0  0  0
   45.4200   32.4970   40.5070 C   0  0  0  0  0  0  0  0  0  0  0  0
   44.3070   32.7790   41.2500 N   0  0  0  0  0  0  0  0  0  0  0  0
   45.3790   32.0779   44.5798 H   0  0  0  0  0  0  0  0  0  0  0  0
   47.1114   32.0078   44.9936 H   0  0  0  0  0  0  0  0  0  0  0  0
   46.4990   33.7113   47.3694 H   0  0  0  0  0  0  0  0  0  0  0  0
   45.6368   32.6134   48.5324 H   0  0  0  0  0  0  0  0  0  0  0  0
   48.3745   31.9911   47.3125 H   0  0  0  0  0  0  0  0  0  0  0  0
   48.1703   32.7485   48.8980 H   0  0  0  0  0  0  0  0  0  0  0  0
   48.2631   30.2754   49.1698 H   0  0  0  0  0  0  0  0  0  0  0  0
   46.6243   30.8072   49.5616 H   0  0  0  0  0  0  0  0  0  0  0  0
   47.6670   29.7328   46.8859 H   0  0  0  0  0  0  0  0  0  0  0  0
   46.4322   28.9824   48.0114 H   0  0  0  0  0  0  0  0  0  0  0  0
   45.7781   30.1340   45.8175 H   0  0  0  0  0  0  0  0  0  0  0  0
   44.7133   30.3209   48.5037 H   0  0  0  0  0  0  0  0  0  0  0  0
   46.2858   35.5390   43.5089 H   0  0  0  0  0  0  0  0  0  0  0  0
   44.7351   35.5684   45.7194 H   0  0  0  0  0  0  0  0  0  0  0  0
   43.8563   34.3891   45.1763 H   0  0  0  0  0  0  0  0  0  0  0  0
   46.9705   33.8617   46.1151 H   0  0  0  0  0  0  0  0  0  0  0  0
   43.6119   33.7283   43.0123 H   0  0  0  0  0  0  0  0  0  0  0  0
   47.8783   33.9472   42.3307 H   0  0  0  0  0  0  0  0  0  0  0  0
   45.3101   31.9225   39.5754 H   0  0  0  0  0  0  0  0  0  0  0  0
  1 11  1  0
  1  2  1  0
  2  7  1  0
  2  3  1  0
  3  4  1  0
  4  5  1  0
  6  5  1  0
  7  8  1  0
  7  6  1  0
  9 10  1  0
  9 11  1  0
 10 11  1  0
 12 13  2  0
 13  9  1  0
 14 13  1  0
 15 14  2  0
 16 15  1  0
 16 17  2  0
 17 12  1  0
  1 18  1  0
  1 19  1  0
  3 20  1  0
  3 21  1  0
  4 22  1  0
  4 23  1  0
  5 24  1  0
  5 25  1  0
  6 26  1  0
  6 27  1  0
  7 28  1  6
  8 29  1  0
  9 30  1  6
 10 31  1  0
 10 32  1  0
 11 33  1  1
 12 34  1  0
 14 35  1  0
 16 36  1  0
M  ISO  8  18   8  19   8  20  13  21  13  22  13  23  13  24  13  25  13
M  ISO  8  26  13  27  13  28  13  29   3  30  13  31  13  32  13  33  13
M  ISO  3  34  14  35  14  36  14
M  END
>  <minimizedAffinity>  (1) 
-3.89476633

>  <minimizedRMSD>  (1) 
0.310123265

$$$$
