
     RDKit          3D

 38 40  0  0  1  0  0  0  0  0999 V2000
   46.0530   32.1950   45.4520 C   0  0  0  0  0  0  0  0  0  0  0  0
   45.7890   31.8410   46.8100 N   0  0  0  0  0  0  0  0  0  0  0  0
   46.4380   32.6170   47.7910 C   0  0  0  0  0  0  0  0  0  0  0  0
   47.7790   32.0100   48.2150 C   0  0  0  0  0  0  0  0  0  0  0  0
   47.4440   30.7150   48.9150 C   0  0  0  0  0  0  0  0  0  0  0  0
   46.7920   29.8370   47.8660 C   0  0  0  0  0  0  0  0  0  0  0  0
   45.6580   30.4830   47.1410 C   0  0  2  0  0  0  0  0  0  0  0  0
   45.3450   29.6130   45.9310 C   0  0  0  0  0  0  0  0  0  0  0  0
   46.0410   34.4060   44.0620 C   0  0  1  0  0  0  0  0  0  0  0  0
   45.0810   34.5400   45.0930 C   0  0  0  0  0  0  0  0  0  0  0  0
   46.2420   33.6640   45.4000 C   0  0  1  0  0  0  0  0  0  0  0  0
   44.5650   33.2470   42.4190 C   0  0  0  0  0  0  0  0  0  0  0  0
   45.8890   33.5580   42.8440 C   0  0  0  0  0  0  0  0  0  0  0  0
   46.9560   33.0740   42.1340 C   0  0  0  0  0  0  0  0  0  0  0  0
   46.6900   32.3030   41.0350 N   0  0  0  0  0  0  0  0  0  0  0  0
   45.4200   32.0160   40.6440 C   0  0  0  0  0  0  0  0  0  0  0  0
   44.3320   32.4830   41.3280 N   0  0  0  0  0  0  0  0  0  0  0  0
   46.9639   31.6871   45.1024 H   0  0  0  0  0  0  0  0  0  0  0  0
   45.2180   31.8900   44.8041 H   0  0  0  0  0  0  0  0  0  0  0  0
   46.6173   33.6235   47.3851 H   0  0  0  0  0  0  0  0  0  0  0  0
   45.7881   32.6529   48.6777 H   0  0  0  0  0  0  0  0  0  0  0  0
   48.4075   31.8168   47.3331 H   0  0  0  0  0  0  0  0  0  0  0  0
   48.3408   32.6905   48.8717 H   0  0  0  0  0  0  0  0  0  0  0  0
   48.3584   30.2390   49.2987 H   0  0  0  0  0  0  0  0  0  0  0  0
   46.7794   30.8796   49.7760 H   0  0  0  0  0  0  0  0  0  0  0  0
   47.5576   29.5565   47.1276 H   0  0  0  0  0  0  0  0  0  0  0  0
   46.3723   28.9704   48.3979 H   0  0  0  0  0  0  0  0  0  0  0  0
   44.8171   30.5307   47.8486 H   0  0  0  0  0  0  0  0  0  0  0  0
   44.9907   28.6281   46.2693 H   0  0  0  0  0  0  0  0  0  0  0  0
   44.5640   30.0953   45.3248 H   0  0  0  0  0  0  0  0  0  0  0  0
   46.2542   29.4872   45.3248 H   0  0  0  0  0  0  0  0  0  0  0  0
   46.5542   35.1597   43.4467 H   0  0  0  0  0  0  0  0  0  0  0  0
   44.9817   35.5038   45.6137 H   0  0  0  0  0  0  0  0  0  0  0  0
   43.9924   34.3872   45.1317 H   0  0  0  0  0  0  0  0  0  0  0  0
   47.0188   33.6050   46.1766 H   0  0  0  0  0  0  0  0  0  0  0  0
   43.7116   33.6380   42.9925 H   0  0  0  0  0  0  0  0  0  0  0  0
   47.9898   33.2971   42.4365 H   0  0  0  0  0  0  0  0  0  0  0  0
   45.2633   31.3907   39.7526 H   0  0  0  0  0  0  0  0  0  0  0  0
  1  2  1  0
  2  7  1  0
  2  3  1  0
  3  4  1  0
  4  5  1  0
  6  5  1  0
  7  6  1  0
  8  7  1  0
  9 10  1  0
  9 11  1  0
 10 11  1  0
 11  1  1  0
 12 13  2  0
 13  9  1  0
 14 13  1  0
 15 14  2  0
 16 15  1  0
 16 17  2  0
 17 12  1  0
  1 18  1  0
  1 19  1  0
  3 20  1  0
  3 21  1  0
  4 22  1  0
  4 23  1  0
  5 24  1  0
  5 25  1  0
  6 26  1  0
  6 27  1  0
  7 28  1  1
  8 29  1  0
  8 30  1  0
  8 31  1  0
  9 32  1  6
 10 33  1  0
 10 34  1  0
 11 35  1  1
 12 36  1  0
 14 37  1  0
 16 38  1  0
M  ISO  8  18   8  19   8  20  13  21  13  22  13  23  13  24  13  25  13
M  ISO  8  26  13  27  13  28  13  29   8  30   8  31   8  32  13  33  13
M  ISO  5  34  13  35  13  36  14  37  14  38  14
M  END
>  <minimizedAffinity>  (1) 
-3.64718151

>  <minimizedRMSD>  (1) 
0.0823578164

$$$$
