
     RDKit          3D

 48 51  0  0  1  0  0  0  0  0999 V2000
   45.6790   35.4710   43.3720 C   0  0  1  0  0  0  0  0  0  0  0  0
   44.5680   34.8860   43.9860 C   0  0  0  0  0  0  0  0  0  0  0  0
   45.8510   34.6240   44.6660 C   0  0  1  0  0  0  0  0  0  0  0  0
   45.6480   34.1580   41.2490 C   0  0  0  0  0  0  0  0  0  0  0  0
   46.3960   34.9740   42.1580 C   0  0  0  0  0  0  0  0  0  0  0  0
   47.6990   35.2570   41.8960 C   0  0  0  0  0  0  0  0  0  0  0  0
   48.2340   34.7310   40.7440 N   0  0  0  0  0  0  0  0  0  0  0  0
   47.5180   33.9650   39.8950 C   0  0  0  0  0  0  0  0  0  0  0  0
   46.1980   33.6540   40.1210 N   0  0  0  0  0  0  0  0  0  0  0  0
   49.1690   31.5280   40.2660 Cl  0  0  0  0  0  0  0  0  0  0  0  0
   48.9380   32.3260   38.7220 C   0  0  0  0  0  0  0  0  0  0  0  0
   48.1450   33.4470   38.7030 C   0  0  0  0  0  0  0  0  0  0  0  0
   47.9630   34.0740   37.4930 C   0  0  0  0  0  0  0  0  0  0  0  0
   48.5640   33.5790   36.3430 C   0  0  0  0  0  0  0  0  0  0  0  0
   49.3590   32.4440   36.3940 C   0  0  0  0  0  0  0  0  0  0  0  0
   49.5360   31.8250   37.6030 C   0  0  0  0  0  0  0  0  0  0  0  0
   46.4850   33.2850   44.5760 C   0  0  0  0  0  0  0  0  0  0  0  0
   45.8970   32.4760   45.5820 N   0  0  0  0  0  0  0  0  0  0  0  0
   45.9150   32.9390   46.9010 C   0  0  0  0  0  0  0  0  0  0  0  0
   47.1760   32.4550   47.6460 C   0  0  0  0  0  0  0  0  0  0  0  0
   47.0280   30.9650   47.8010 C   0  0  0  0  0  0  0  0  0  0  0  0
   46.9700   30.3970   46.3990 C   0  0  0  0  0  0  0  0  0  0  0  0
   45.9930   31.0820   45.4880 C   0  0  2  0  0  0  0  0  0  0  0  0
   46.3280   30.6270   44.0740 C   0  0  0  0  0  0  0  0  0  0  0  0
   45.8411   36.4966   43.0087 H   0  0  0  0  0  0  0  0  0  0  0  0
   43.8261   35.5335   44.4763 H   0  0  0  0  0  0  0  0  0  0  0  0
   43.7752   34.2216   43.6118 H   0  0  0  0  0  0  0  0  0  0  0  0
   46.2640   34.7586   45.6766 H   0  0  0  0  0  0  0  0  0  0  0  0
   44.5949   33.9347   41.4751 H   0  0  0  0  0  0  0  0  0  0  0  0
   48.2993   35.8796   42.5758 H   0  0  0  0  0  0  0  0  0  0  0  0
   47.3357   34.9758   37.4353 H   0  0  0  0  0  0  0  0  0  0  0  0
   48.4079   34.0921   35.3826 H   0  0  0  0  0  0  0  0  0  0  0  0
   49.8364   32.0499   35.4847 H   0  0  0  0  0  0  0  0  0  0  0  0
   50.1613   30.9226   37.6717 H   0  0  0  0  0  0  0  0  0  0  0  0
   46.3012   32.8465   43.5841 H   0  0  0  0  0  0  0  0  0  0  0  0
   47.5734   33.3571   44.7184 H   0  0  0  0  0  0  0  0  0  0  0  0
   45.9019   34.0389   46.8952 H   0  0  0  0  0  0  0  0  0  0  0  0
   45.0302   32.5428   47.4209 H   0  0  0  0  0  0  0  0  0  0  0  0
   48.0777   32.6896   47.0612 H   0  0  0  0  0  0  0  0  0  0  0  0
   47.2789   32.9507   48.6225 H   0  0  0  0  0  0  0  0  0  0  0  0
   47.8900   30.5509   48.3446 H   0  0  0  0  0  0  0  0  0  0  0  0
   46.1243   30.7099   48.3740 H   0  0  0  0  0  0  0  0  0  0  0  0
   47.9720   30.4807   45.9530 H   0  0  0  0  0  0  0  0  0  0  0  0
   46.6278   29.3563   46.4978 H   0  0  0  0  0  0  0  0  0  0  0  0
   44.9848   30.7800   45.8080 H   0  0  0  0  0  0  0  0  0  0  0  0
   46.9797   29.7419   44.1183 H   0  0  0  0  0  0  0  0  0  0  0  0
   45.3999   30.3727   43.5411 H   0  0  0  0  0  0  0  0  0  0  0  0
   46.8464   31.4377   43.5411 H   0  0  0  0  0  0  0  0  0  0  0  0
  1  2  1  0
  1  3  1  0
  2  3  1  0
  4  5  2  0
  5  1  1  0
  6  5  1  0
  7  6  2  0
  8  9  2  0
  8  7  1  0
  9  4  1  0
 11 10  1  0
 12 11  2  0
 12  8  1  0
 13 12  1  0
 14 15  1  0
 14 13  2  0
 15 16  2  0
 16 11  1  0
 17  3  1  0
 17 18  1  0
 18 19  1  0
 19 20  1  0
 20 21  1  0
 22 21  1  0
 23 18  1  0
 23 22  1  0
 24 23  1  0
  1 25  1  1
  2 26  1  0
  2 27  1  0
  3 28  1  1
  4 29  1  0
  6 30  1  0
 13 31  1  0
 14 32  1  0
 15 33  1  0
 16 34  1  0
 17 35  1  0
 17 36  1  0
 19 37  1  0
 19 38  1  0
 20 39  1  0
 20 40  1  0
 21 41  1  0
 21 42  1  0
 22 43  1  0
 22 44  1  0
 23 45  1  1
 24 46  1  0
 24 47  1  0
 24 48  1  0
M  ISO  8  25  13  26  13  27  13  28  13  29  14  30  14  31  14  32  14
M  ISO  8  33  14  34  14  35   8  36   8  37  13  38  13  39  13  40  13
M  ISO  8  41  13  42  13  43  13  44  13  45  13  46   8  47   8  48   8
M  END
>  <minimizedAffinity>  (1) 
-5.19357061

>  <minimizedRMSD>  (1) 
2.86262727

$$$$
