
     RDKit          3D

 41 43  0  0  1  0  0  0  0  0999 V2000
   46.5350   33.0850   44.5060 C   0  0  0  0  0  0  0  0  0  0  0  0
   46.0360   32.2250   45.5170 N   0  0  0  0  0  0  0  0  0  0  0  0
   45.9640   32.7150   46.8260 C   0  0  0  0  0  0  0  0  0  0  0  0
   47.2560   32.4270   47.6130 C   0  0  0  0  0  0  0  0  0  0  0  0
   47.2970   30.9240   47.8000 C   0  0  0  0  0  0  0  0  0  0  0  0
   47.3710   30.3360   46.4130 C   0  0  0  0  0  0  0  0  0  0  0  0
   46.3330   30.8560   45.4600 C   0  0  2  0  0  0  0  0  0  0  0  0
   46.7660   30.4230   44.0670 C   0  0  0  0  0  0  0  0  0  0  0  0
   45.7480   35.3820   43.5150 C   0  0  1  0  0  0  0  0  0  0  0  0
   44.6430   34.7690   44.1090 C   0  0  0  0  0  0  0  0  0  0  0  0
   45.9350   34.4230   44.7270 C   0  0  1  0  0  0  0  0  0  0  0  0
   45.6330   34.2760   41.2800 C   0  0  0  0  0  0  0  0  0  0  0  0
   46.4250   34.9800   42.2450 C   0  0  0  0  0  0  0  0  0  0  0  0
   47.7300   35.2490   41.9850 C   0  0  0  0  0  0  0  0  0  0  0  0
   48.2300   34.8200   40.7800 N   0  0  0  0  0  0  0  0  0  0  0  0
   47.4670   34.1530   39.8720 C   0  0  0  0  0  0  0  0  0  0  0  0
   46.1410   33.8610   40.0980 N   0  0  0  0  0  0  0  0  0  0  0  0
   48.1560   33.7520   38.6060 C   0  0  0  0  0  0  0  0  0  0  0  0
   49.2110   32.8920   38.9120 F   0  0  0  0  0  0  0  0  0  0  0  0
   47.2620   33.0930   37.7890 F   0  0  0  0  0  0  0  0  0  0  0  0
   48.6900   34.8410   37.9540 F   0  0  0  0  0  0  0  0  0  0  0  0
   46.2502   32.7043   43.5141 H   0  0  0  0  0  0  0  0  0  0  0  0
   47.6328   33.1394   44.5490 H   0  0  0  0  0  0  0  0  0  0  0  0
   45.8025   33.8025   46.7913 H   0  0  0  0  0  0  0  0  0  0  0  0
   45.1312   32.2093   47.3365 H   0  0  0  0  0  0  0  0  0  0  0  0
   48.1346   32.7668   47.0450 H   0  0  0  0  0  0  0  0  0  0  0  0
   47.2700   32.9562   48.5772 H   0  0  0  0  0  0  0  0  0  0  0  0
   48.1824   30.6354   48.3855 H   0  0  0  0  0  0  0  0  0  0  0  0
   46.4136   30.5610   48.3456 H   0  0  0  0  0  0  0  0  0  0  0  0
   48.3637   30.5619   45.9965 H   0  0  0  0  0  0  0  0  0  0  0  0
   47.1849   29.2572   46.5202 H   0  0  0  0  0  0  0  0  0  0  0  0
   45.3697   30.4200   45.7631 H   0  0  0  0  0  0  0  0  0  0  0  0
   47.5417   29.6473   44.1487 H   0  0  0  0  0  0  0  0  0  0  0  0
   45.8996   30.0192   43.5227 H   0  0  0  0  0  0  0  0  0  0  0  0
   47.1698   31.2894   43.5227 H   0  0  0  0  0  0  0  0  0  0  0  0
   45.9209   36.4315   43.2344 H   0  0  0  0  0  0  0  0  0  0  0  0
   43.9296   35.3869   44.6740 H   0  0  0  0  0  0  0  0  0  0  0  0
   43.8258   34.1552   43.7022 H   0  0  0  0  0  0  0  0  0  0  0  0
   46.3776   34.4614   45.7333 H   0  0  0  0  0  0  0  0  0  0  0  0
   44.5776   34.0666   41.5086 H   0  0  0  0  0  0  0  0  0  0  0  0
   48.3599   35.7875   42.7084 H   0  0  0  0  0  0  0  0  0  0  0  0
  1 11  1  0
  1  2  1  0
  2  3  1  0
  3  4  1  0
  4  5  1  0
  6  5  1  0
  7  2  1  0
  7  6  1  0
  8  7  1  0
  9 10  1  0
  9 11  1  0
 10 11  1  0
 12 13  2  0
 13  9  1  0
 14 13  1  0
 15 14  2  0
 16 17  2  0
 16 15  1  0
 17 12  1  0
 18 19  1  0
 18 16  1  0
 20 18  1  0
 21 18  1  0
  1 22  1  0
  1 23  1  0
  3 24  1  0
  3 25  1  0
  4 26  1  0
  4 27  1  0
  5 28  1  0
  5 29  1  0
  6 30  1  0
  6 31  1  0
  7 32  1  1
  8 33  1  0
  8 34  1  0
  8 35  1  0
  9 36  1  1
 10 37  1  0
 10 38  1  0
 11 39  1  1
 12 40  1  0
 14 41  1  0
M  ISO  8  22   8  23   8  24  13  25  13  26  13  27  13  28  13  29  13
M  ISO  8  30  13  31  13  32  13  33   8  34   8  35   8  36  13  37  13
M  ISO  4  38  13  39  13  40  14  41  14
M  END
>  <minimizedAffinity>  (1) 
-4.80000877

>  <minimizedRMSD>  (1) 
2.55251646

$$$$
