
     RDKit          3D

 44 47  0  0  1  0  0  0  0  0999 V2000
   46.8050   32.9940   38.7040 N   0  0  0  0  0  0  0  0  0  0  0  0
   45.7210   33.2050   37.7420 C   0  0  0  0  0  0  0  0  0  0  0  0
   45.0740   31.9070   37.3280 C   0  0  0  0  0  0  0  0  0  0  0  0
   45.9960   31.0580   36.6110 N   0  0  0  0  0  0  0  0  0  0  0  0
   47.3560   31.4630   36.9450 C   0  0  0  0  0  0  0  0  0  0  0  0
   47.4520   31.7360   38.4200 C   0  0  1  0  0  0  0  0  0  0  0  0
   44.9070   32.9350   41.1950 Br  0  0  0  0  0  0  0  0  0  0  0  0
   46.5150   33.9510   40.9540 C   0  0  0  0  0  0  0  0  0  0  0  0
   46.9410   34.7700   41.9610 C   0  0  0  0  0  0  0  0  0  0  0  0
   48.1110   35.5310   41.7990 C   0  0  0  0  0  0  0  0  0  0  0  0
   48.8010   35.4230   40.6100 C   0  0  0  0  0  0  0  0  0  0  0  0
   48.3140   34.5760   39.6310 C   0  0  0  0  0  0  0  0  0  0  0  0
   47.1970   33.8370   39.7660 C   0  0  0  0  0  0  0  0  0  0  0  0
   45.6770   34.0230   45.2980 C   0  0  0  0  0  0  0  0  0  0  0  0
   44.7180   35.0460   45.5310 C   0  0  0  0  0  0  0  0  0  0  0  0
   44.5360   35.9780   44.5100 C   0  0  0  0  0  0  0  0  0  0  0  0
   45.2640   35.8630   43.3780 N   0  0  0  0  0  0  0  0  0  0  0  0
   46.1830   34.8550   43.1930 C   0  0  0  0  0  0  0  0  0  0  0  0
   46.3670   33.9540   44.1650 N   0  0  0  0  0  0  0  0  0  0  0  0
   47.5420   30.4860   41.2510 Cl  0  0  0  0  0  0  0  0  0  0  0  0
   48.9350   30.8540   40.2660 C   0  0  0  0  0  0  0  0  0  0  0  0
   48.7180   31.4450   39.0350 C   0  0  0  0  0  0  0  0  0  0  0  0
   49.9350   31.7170   38.3880 C   0  0  0  0  0  0  0  0  0  0  0  0
   51.2020   31.4540   38.8620 C   0  0  0  0  0  0  0  0  0  0  0  0
   51.2880   30.8610   40.1020 C   0  0  0  0  0  0  0  0  0  0  0  0
   50.1530   30.5530   40.8220 C   0  0  0  0  0  0  0  0  0  0  0  0
   44.9587   33.8513   38.2017 H   0  0  0  0  0  0  0  0  0  0  0  0
   46.1496   33.6733   36.8437 H   0  0  0  0  0  0  0  0  0  0  0  0
   44.7277   31.3778   38.2280 H   0  0  0  0  0  0  0  0  0  0  0  0
   44.2313   32.1403   36.6606 H   0  0  0  0  0  0  0  0  0  0  0  0
   45.8432   31.1578   35.5973 H   0  0  0  0  0  0  0  0  0  0  0  0
   48.0547   30.6573   36.6754 H   0  0  0  0  0  0  0  0  0  0  0  0
   47.6134   32.3752   36.3868 H   0  0  0  0  0  0  0  0  0  0  0  0
   46.8792   30.9779   38.9742 H   0  0  0  0  0  0  0  0  0  0  0  0
   48.4673   36.1956   42.5998 H   0  0  0  0  0  0  0  0  0  0  0  0
   49.7224   36.0002   40.4431 H   0  0  0  0  0  0  0  0  0  0  0  0
   48.8725   34.5019   38.6862 H   0  0  0  0  0  0  0  0  0  0  0  0
   45.8527   33.2673   46.0778 H   0  0  0  0  0  0  0  0  0  0  0  0
   44.1478   35.0997   46.4701 H   0  0  0  0  0  0  0  0  0  0  0  0
   43.8094   36.7958   44.6248 H   0  0  0  0  0  0  0  0  0  0  0  0
   49.8696   32.1905   37.3973 H   0  0  0  0  0  0  0  0  0  0  0  0
   52.1002   31.7053   38.2788 H   0  0  0  0  0  0  0  0  0  0  0  0
   52.2769   30.6296   40.5244 H   0  0  0  0  0  0  0  0  0  0  0  0
   50.2219   30.0800   41.8127 H   0  0  0  0  0  0  0  0  0  0  0  0
  1 13  1  0
  2  1  1  0
  3  2  1  0
  4  5  1  0
  4  3  1  0
  5  6  1  0
  6  1  1  0
  6 22  1  0
  8  7  1  0
  8  9  2  0
  9 18  1  0
 10  9  1  0
 11 10  2  0
 12 13  2  0
 12 11  1  0
 13  8  1  0
 14 15  2  0
 16 15  1  0
 17 16  2  0
 18 17  1  0
 18 19  2  0
 19 14  1  0
 21 26  2  0
 21 20  1  0
 22 21  1  0
 23 24  1  0
 23 22  2  0
 24 25  2  0
 25 26  1  0
  2 27  1  0
  2 28  1  0
  3 29  1  0
  3 30  1  0
  4 31  1  0
  5 32  1  0
  5 33  1  0
  6 34  1  1
 10 35  1  0
 11 36  1  0
 12 37  1  0
 14 38  1  0
 15 39  1  0
 16 40  1  0
 23 41  1  0
 24 42  1  0
 25 43  1  0
 26 44  1  0
M  ISO  8  27  13  28  13  29  13  30  13  31   5  32  13  33  13  34  13
M  ISO  8  35  14  36  14  37  14  38  14  39  14  40  14  41  14  42  14
M  ISO  2  43  14  44  14
M  END
>  <minimizedAffinity>  (1) 
-5.87056208

>  <minimizedRMSD>  (1) 
0.913936675

$$$$
