
     RDKit          3D

 40 42  0  0  1  0  0  0  0  0999 V2000
   46.0090   32.2640   45.4690 C   0  0  0  0  0  0  0  0  0  0  0  0
   45.7730   31.8500   46.8050 N   0  0  0  0  0  0  0  0  0  0  0  0
   46.3600   32.5920   47.8410 C   0  0  0  0  0  0  0  0  0  0  0  0
   47.7520   32.0340   48.2150 C   0  0  0  0  0  0  0  0  0  0  0  0
   47.5050   30.6920   48.8440 C   0  0  0  0  0  0  0  0  0  0  0  0
   46.8570   29.8420   47.7740 C   0  0  0  0  0  0  0  0  0  0  0  0
   45.6820   30.4830   47.0940 C   0  0  2  0  0  0  0  0  0  0  0  0
   45.3940   29.6550   45.8500 C   0  0  0  0  0  0  0  0  0  0  0  0
   45.9100   34.5410   44.1710 C   0  0  1  0  0  0  0  0  0  0  0  0
   44.9900   34.6040   45.2180 C   0  0  0  0  0  0  0  0  0  0  0  0
   46.1530   33.7420   45.4830 C   0  0  1  0  0  0  0  0  0  0  0  0
   44.4730   33.4430   42.4510 C   0  0  0  0  0  0  0  0  0  0  0  0
   45.7940   33.7350   42.9190 C   0  0  0  0  0  0  0  0  0  0  0  0
   46.8730   33.2780   42.2330 C   0  0  0  0  0  0  0  0  0  0  0  0
   46.6360   32.5440   41.0990 N   0  0  0  0  0  0  0  0  0  0  0  0
   45.3680   32.2740   40.6620 C   0  0  0  0  0  0  0  0  0  0  0  0
   44.2520   32.7180   41.3310 N   0  0  0  0  0  0  0  0  0  0  0  0
   45.1810   31.5040   39.4730 N   0  0  0  0  0  0  0  0  0  0  0  0
   45.1617   31.9745   44.8301 H   0  0  0  0  0  0  0  0  0  0  0  0
   46.9164   31.7883   45.0687 H   0  0  0  0  0  0  0  0  0  0  0  0
   46.4689   33.6371   47.5156 H   0  0  0  0  0  0  0  0  0  0  0  0
   45.7106   32.5247   48.7263 H   0  0  0  0  0  0  0  0  0  0  0  0
   48.3747   31.9253   47.3147 H   0  0  0  0  0  0  0  0  0  0  0  0
   48.2854   32.7084   48.9010 H   0  0  0  0  0  0  0  0  0  0  0  0
   48.4548   30.2409   49.1672 H   0  0  0  0  0  0  0  0  0  0  0  0
   46.8641   30.7764   49.7340 H   0  0  0  0  0  0  0  0  0  0  0  0
   47.6148   29.6161   47.0094 H   0  0  0  0  0  0  0  0  0  0  0  0
   46.4732   28.9434   48.2792 H   0  0  0  0  0  0  0  0  0  0  0  0
   44.8509   30.4763   47.8146 H   0  0  0  0  0  0  0  0  0  0  0  0
   45.0461   28.6548   46.1477 H   0  0  0  0  0  0  0  0  0  0  0  0
   44.6156   30.1509   45.2516 H   0  0  0  0  0  0  0  0  0  0  0  0
   46.3122   29.5608   45.2516 H   0  0  0  0  0  0  0  0  0  0  0  0
   46.3705   35.3404   43.5718 H   0  0  0  0  0  0  0  0  0  0  0  0
   44.8836   35.5441   45.7791 H   0  0  0  0  0  0  0  0  0  0  0  0
   43.9058   34.4247   45.2663 H   0  0  0  0  0  0  0  0  0  0  0  0
   46.9327   33.6641   46.2550 H   0  0  0  0  0  0  0  0  0  0  0  0
   43.6106   33.8202   43.0203 H   0  0  0  0  0  0  0  0  0  0  0  0
   47.8976   33.4884   42.5736 H   0  0  0  0  0  0  0  0  0  0  0  0
   44.2293   31.2968   39.1380 H   0  0  0  0  0  0  0  0  0  0  0  0
   45.9979   31.1561   38.9509 H   0  0  0  0  0  0  0  0  0  0  0  0
  1 11  1  0
  1  2  1  0
  2  7  1  0
  2  3  1  0
  3  4  1  0
  4  5  1  0
  6  5  1  0
  7  6  1  0
  8  7  1  0
  9 10  1  0
  9 11  1  0
 10 11  1  0
 12 13  2  0
 13  9  1  0
 14 13  1  0
 15 14  2  0
 16 15  1  0
 16 17  2  0
 17 12  1  0
 18 16  1  0
  1 19  1  0
  1 20  1  0
  3 21  1  0
  3 22  1  0
  4 23  1  0
  4 24  1  0
  5 25  1  0
  5 26  1  0
  6 27  1  0
  6 28  1  0
  7 29  1  1
  8 30  1  0
  8 31  1  0
  8 32  1  0
  9 33  1  6
 10 34  1  0
 10 35  1  0
 11 36  1  1
 12 37  1  0
 14 38  1  0
 18 39  1  0
 18 40  1  0
M  ISO  8  19   8  20   8  21  13  22  13  23  13  24  13  25  13  26  13
M  ISO  8  27  13  28  13  29  13  30   8  31   8  32   8  33  13  34  13
M  ISO  4  35  13  36  13  37  14  38  14
M  END
>  <minimizedAffinity>  (1) 
-3.75421906

>  <minimizedRMSD>  (1) 
0.181778327

$$$$
