
     RDKit          3D

 39 41  0  0  1  0  0  0  0  0999 V2000
   46.0020   32.2690   45.4880 C   0  0  0  0  0  0  0  0  0  0  0  0
   45.7760   31.8610   46.8290 N   0  0  0  0  0  0  0  0  0  0  0  0
   46.3760   32.6000   47.8540 C   0  0  0  0  0  0  0  0  0  0  0  0
   47.7640   32.0350   48.2160 C   0  0  0  0  0  0  0  0  0  0  0  0
   47.5210   30.6950   48.8510 C   0  0  0  0  0  0  0  0  0  0  0  0
   46.8500   29.8450   47.7920 C   0  0  0  0  0  0  0  0  0  0  0  0
   45.6730   30.4940   47.1210 C   0  0  2  0  0  0  0  0  0  0  0  0
   45.3720   29.6640   45.8800 C   0  0  0  0  0  0  0  0  0  0  0  0
   45.9100   34.5380   44.1790 C   0  0  1  0  0  0  0  0  0  0  0  0
   44.9850   34.6100   45.2230 C   0  0  0  0  0  0  0  0  0  0  0  0
   46.1480   33.7470   45.4980 C   0  0  1  0  0  0  0  0  0  0  0  0
   44.4780   33.4420   42.4570 C   0  0  0  0  0  0  0  0  0  0  0  0
   45.8000   33.7280   42.9320 C   0  0  0  0  0  0  0  0  0  0  0  0
   46.8790   33.2620   42.2510 C   0  0  0  0  0  0  0  0  0  0  0  0
   46.6410   32.5280   41.1220 N   0  0  0  0  0  0  0  0  0  0  0  0
   45.3740   32.2620   40.6770 C   0  0  0  0  0  0  0  0  0  0  0  0
   44.2550   32.7160   41.3400 N   0  0  0  0  0  0  0  0  0  0  0  0
   45.3900   31.5120   39.5310 O   0  0  0  0  0  0  0  0  0  0  0  0
   45.1492   31.9787   44.8568 H   0  0  0  0  0  0  0  0  0  0  0  0
   46.9045   31.7899   45.0806 H   0  0  0  0  0  0  0  0  0  0  0  0
   46.4891   33.6433   47.5241 H   0  0  0  0  0  0  0  0  0  0  0  0
   45.7344   32.5401   48.7455 H   0  0  0  0  0  0  0  0  0  0  0  0
   48.3773   31.9216   47.3099 H   0  0  0  0  0  0  0  0  0  0  0  0
   48.3046   32.7084   48.8974 H   0  0  0  0  0  0  0  0  0  0  0  0
   48.4739   30.2398   49.1589 H   0  0  0  0  0  0  0  0  0  0  0  0
   46.8954   30.7840   49.7514 H   0  0  0  0  0  0  0  0  0  0  0  0
   47.5964   29.6066   47.0199 H   0  0  0  0  0  0  0  0  0  0  0  0
   46.4621   28.9541   48.3076 H   0  0  0  0  0  0  0  0  0  0  0  0
   44.8449   30.4961   47.8451 H   0  0  0  0  0  0  0  0  0  0  0  0
   45.0114   28.6698   46.1824 H   0  0  0  0  0  0  0  0  0  0  0  0
   44.5992   30.1676   45.2806 H   0  0  0  0  0  0  0  0  0  0  0  0
   46.2879   29.5552   45.2806 H   0  0  0  0  0  0  0  0  0  0  0  0
   46.3735   35.3327   43.5760 H   0  0  0  0  0  0  0  0  0  0  0  0
   44.8779   35.5541   45.7772 H   0  0  0  0  0  0  0  0  0  0  0  0
   43.9003   34.4327   45.2688 H   0  0  0  0  0  0  0  0  0  0  0  0
   46.9238   33.6735   46.2743 H   0  0  0  0  0  0  0  0  0  0  0  0
   43.6158   33.8269   43.0214 H   0  0  0  0  0  0  0  0  0  0  0  0
   47.9038   33.4670   42.5942 H   0  0  0  0  0  0  0  0  0  0  0  0
   44.5386   31.2474   39.1007 H   0  0  0  0  0  0  0  0  0  0  0  0
  1 11  1  0
  1  2  1  0
  2  7  1  0
  2  3  1  0
  3  4  1  0
  4  5  1  0
  6  5  1  0
  7  6  1  0
  8  7  1  0
  9 10  1  0
  9 11  1  0
 10 11  1  0
 12 13  2  0
 13  9  1  0
 14 13  1  0
 15 14  2  0
 16 15  1  0
 16 17  2  0
 17 12  1  0
 18 16  1  0
  1 19  1  0
  1 20  1  0
  3 21  1  0
  3 22  1  0
  4 23  1  0
  4 24  1  0
  5 25  1  0
  5 26  1  0
  6 27  1  0
  6 28  1  0
  7 29  1  1
  8 30  1  0
  8 31  1  0
  8 32  1  0
  9 33  1  6
 10 34  1  0
 10 35  1  0
 11 36  1  1
 12 37  1  0
 14 38  1  0
 18 39  1  0
M  ISO  8  19   8  20   8  21  13  22  13  23  13  24  13  25  13  26  13
M  ISO  8  27  13  28  13  29  13  30   8  31   8  32   8  33  13  34  13
M  ISO  5  35  13  36  13  37  14  38  14  39   3
M  END
>  <minimizedAffinity>  (1) 
-3.74625707

>  <minimizedRMSD>  (1) 
0.178459704

$$$$
