
     RDKit          3D

 44 46  0  0  1  0  0  0  0  0999 V2000
   45.9880   32.3640   45.4250 C   0  0  0  0  0  0  0  0  0  0  0  0
   45.7440   31.8880   46.7390 N   0  0  0  0  0  0  0  0  0  0  0  0
   46.2790   32.6060   47.8130 C   0  0  0  0  0  0  0  0  0  0  0  0
   47.6820   32.0880   48.1890 C   0  0  0  0  0  0  0  0  0  0  0  0
   47.4840   30.7090   48.7580 C   0  0  0  0  0  0  0  0  0  0  0  0
   46.8780   29.8770   47.6440 C   0  0  0  0  0  0  0  0  0  0  0  0
   45.6910   30.5080   46.9720 C   0  0  2  0  0  0  0  0  0  0  0  0
   45.4430   29.7230   45.6920 C   0  0  0  0  0  0  0  0  0  0  0  0
   45.8670   34.6870   44.2160 C   0  0  1  0  0  0  0  0  0  0  0  0
   44.9070   34.6850   45.2310 C   0  0  0  0  0  0  0  0  0  0  0  0
   46.0850   33.8430   45.5040 C   0  0  1  0  0  0  0  0  0  0  0  0
   44.5150   33.5740   42.4330 C   0  0  0  0  0  0  0  0  0  0  0  0
   45.8100   33.9280   42.9300 C   0  0  0  0  0  0  0  0  0  0  0  0
   46.9220   33.5700   42.2350 C   0  0  0  0  0  0  0  0  0  0  0  0
   46.7510   32.8740   41.0690 N   0  0  0  0  0  0  0  0  0  0  0  0
   45.5060   32.5410   40.6070 C   0  0  0  0  0  0  0  0  0  0  0  0
   44.3570   32.8850   41.2810 N   0  0  0  0  0  0  0  0  0  0  0  0
   45.3240   31.7950   39.3560 C   0  0  0  0  0  0  0  0  0  0  0  0
   45.3120   32.7500   38.2040 C   0  0  0  0  0  0  0  0  0  0  0  0
   45.1604   32.0757   44.7602 H   0  0  0  0  0  0  0  0  0  0  0  0
   46.9156   31.9333   45.0200 H   0  0  0  0  0  0  0  0  0  0  0  0
   46.3517   33.6675   47.5338 H   0  0  0  0  0  0  0  0  0  0  0  0
   45.6166   32.4769   48.6817 H   0  0  0  0  0  0  0  0  0  0  0  0
   48.3235   32.0434   47.2965 H   0  0  0  0  0  0  0  0  0  0  0  0
   48.1729   32.7534   48.9144 H   0  0  0  0  0  0  0  0  0  0  0  0
   48.4487   30.2831   49.0710 H   0  0  0  0  0  0  0  0  0  0  0  0
   46.8324   30.7297   49.6440 H   0  0  0  0  0  0  0  0  0  0  0  0
   47.6531   29.7051   46.8826 H   0  0  0  0  0  0  0  0  0  0  0  0
   46.5180   28.9468   48.1077 H   0  0  0  0  0  0  0  0  0  0  0  0
   44.8513   30.4452   47.6798 H   0  0  0  0  0  0  0  0  0  0  0  0
   45.1205   28.7021   45.9446 H   0  0  0  0  0  0  0  0  0  0  0  0
   44.6582   30.2203   45.1031 H   0  0  0  0  0  0  0  0  0  0  0  0
   46.3711   29.6792   45.1031 H   0  0  0  0  0  0  0  0  0  0  0  0
   46.3302   35.5198   43.6665 H   0  0  0  0  0  0  0  0  0  0  0  0
   44.7549   35.5989   45.8239 H   0  0  0  0  0  0  0  0  0  0  0  0
   43.8270   34.4761   45.2328 H   0  0  0  0  0  0  0  0  0  0  0  0
   46.8369   33.7550   46.3021 H   0  0  0  0  0  0  0  0  0  0  0  0
   43.6235   33.8711   43.0047 H   0  0  0  0  0  0  0  0  0  0  0  0
   47.9270   33.8313   42.5980 H   0  0  0  0  0  0  0  0  0  0  0  0
   46.1509   31.0803   39.2314 H   0  0  0  0  0  0  0  0  0  0  0  0
   44.3698   31.2488   39.3899 H   0  0  0  0  0  0  0  0  0  0  0  0
   45.2990   33.7823   38.5836 H   0  0  0  0  0  0  0  0  0  0  0  0
   46.2121   32.5961   37.5908 H   0  0  0  0  0  0  0  0  0  0  0  0
   44.4160   32.5736   37.5908 H   0  0  0  0  0  0  0  0  0  0  0  0
  1 11  1  0
  1  2  1  0
  2  7  1  0
  2  3  1  0
  3  4  1  0
  4  5  1  0
  6  5  1  0
  7  6  1  0
  8  7  1  0
  9 10  1  0
  9 11  1  0
 10 11  1  0
 12 13  2  0
 13  9  1  0
 14 13  1  0
 15 14  2  0
 16 15  1  0
 16 17  2  0
 17 12  1  0
 18 16  1  0
 19 18  1  0
  1 20  1  0
  1 21  1  0
  3 22  1  0
  3 23  1  0
  4 24  1  0
  4 25  1  0
  5 26  1  0
  5 27  1  0
  6 28  1  0
  6 29  1  0
  7 30  1  1
  8 31  1  0
  8 32  1  0
  8 33  1  0
  9 34  1  6
 10 35  1  0
 10 36  1  0
 11 37  1  1
 12 38  1  0
 14 39  1  0
 18 40  1  0
 18 41  1  0
 19 42  1  0
 19 43  1  0
 19 44  1  0
M  ISO  8  20   8  21   8  22  13  23  13  24  13  25  13  26  13  27  13
M  ISO  8  28  13  29  13  30  13  31   8  32   8  33   8  34  13  35  13
M  ISO  8  36  13  37  13  38  14  39  14  40   8  41   8  42   8  43   8
M  ISO  1  44   8
M  END
>  <minimizedAffinity>  (1) 
-3.71708179

>  <minimizedRMSD>  (1) 
0.387751013

$$$$
