
     RDKit          3D

 39 41  0  0  1  0  0  0  0  0999 V2000
   49.0210   33.4230   42.4010 C   0  0  0  0  0  0  0  0  0  0  0  0
   47.8850   32.9700   42.8850 C   0  0  0  0  0  0  0  0  0  0  0  0
   49.6260   32.7550   41.2540 C   0  0  0  0  0  0  0  0  0  0  0  0
   50.9250   32.2210   41.4300 C   0  0  0  0  0  0  0  0  0  0  0  0
   51.5330   31.5740   40.3510 C   0  0  0  0  0  0  0  0  0  0  0  0
   50.8420   31.4920   39.1810 N   0  0  0  0  0  0  0  0  0  0  0  0
   49.6080   32.0160   39.0580 C   0  0  0  0  0  0  0  0  0  0  0  0
   49.0150   32.6370   40.0850 N   0  0  0  0  0  0  0  0  0  0  0  0
   49.4340   34.1790   37.2160 F   0  0  0  0  0  0  0  0  0  0  0  0
   48.8730   32.9750   36.9120 C   0  0  0  0  0  0  0  0  0  0  0  0
   48.9280   31.8890   37.7720 C   0  0  0  0  0  0  0  0  0  0  0  0
   48.3530   30.6690   37.4520 C   0  0  0  0  0  0  0  0  0  0  0  0
   47.7000   30.5040   36.2480 C   0  0  0  0  0  0  0  0  0  0  0  0
   47.6710   31.6100   35.4260 C   0  0  0  0  0  0  0  0  0  0  0  0
   48.2210   32.8460   35.6850 C   0  0  0  0  0  0  0  0  0  0  0  0
   47.2060   33.5800   44.0370 C   0  0  0  0  0  0  0  0  0  0  0  0
   44.6830   36.1220   43.5760 C   0  0  1  0  0  0  0  0  0  0  0  0
   45.8720   35.4050   42.9310 C   0  0  0  0  0  0  0  0  0  0  0  0
   45.8150   34.1050   43.6440 C   0  0  2  0  0  0  0  0  0  0  0  0
   44.9910   34.2160   44.7320 O   0  0  0  0  0  0  0  0  0  0  0  0
   44.7370   35.5520   44.9730 C   0  0  0  0  0  0  0  0  0  0  0  0
   44.9100   37.5070   43.5700 O   0  0  0  0  0  0  0  0  0  0  0  0
   49.5099   34.2968   42.8566 H   0  0  0  0  0  0  0  0  0  0  0  0
   47.4220   32.0948   42.4058 H   0  0  0  0  0  0  0  0  0  0  0  0
   51.4445   32.3133   42.3952 H   0  0  0  0  0  0  0  0  0  0  0  0
   52.5409   31.1434   40.4443 H   0  0  0  0  0  0  0  0  0  0  0  0
   48.4176   29.8298   38.1602 H   0  0  0  0  0  0  0  0  0  0  0  0
   47.2322   29.5503   35.9622 H   0  0  0  0  0  0  0  0  0  0  0  0
   47.1544   31.4934   34.4619 H   0  0  0  0  0  0  0  0  0  0  0  0
   48.1507   33.6788   34.9698 H   0  0  0  0  0  0  0  0  0  0  0  0
   47.0947   32.8254   44.8296 H   0  0  0  0  0  0  0  0  0  0  0  0
   47.8119   34.4265   44.3923 H   0  0  0  0  0  0  0  0  0  0  0  0
   43.7123   35.9815   43.0780 H   0  0  0  0  0  0  0  0  0  0  0  0
   45.7334   35.2811   41.8468 H   0  0  0  0  0  0  0  0  0  0  0  0
   46.8317   35.9357   43.0164 H   0  0  0  0  0  0  0  0  0  0  0  0
   45.4006   33.3570   42.9521 H   0  0  0  0  0  0  0  0  0  0  0  0
   45.5450   36.0121   45.5608 H   0  0  0  0  0  0  0  0  0  0  0  0
   43.8229   35.7296   45.5586 H   0  0  0  0  0  0  0  0  0  0  0  0
   44.9640   37.8366   44.5020 H   0  0  0  0  0  0  0  0  0  0  0  0
  1  2  2  0
  2 16  1  0
  3  4  2  0
  3  1  1  0
  5  4  1  0
  6  5  2  0
  7  6  1  0
  7  8  2  0
  8  3  1  0
 10  9  1  0
 10 11  2  0
 11  7  1  0
 12 11  1  0
 13 12  2  0
 14 15  2  0
 14 13  1  0
 15 10  1  0
 17 21  1  0
 18 17  1  0
 18 19  1  0
 19 16  1  0
 19 20  1  0
 20 21  1  0
 22 17  1  0
  1 23  1  0
  2 24  1  0
  4 25  1  0
  5 26  1  0
 12 27  1  0
 13 28  1  0
 14 29  1  0
 15 30  1  0
 16 31  1  0
 16 32  1  0
 17 33  1  6
 18 34  1  0
 18 35  1  0
 19 36  1  6
 21 37  1  0
 21 38  1  0
 22 39  1  0
M  ISO  8  25  14  26  14  27  14  28  14  29  14  30  14  31   8  32   8
M  ISO  7  33  13  34  13  35  13  36  13  37  13  38  13  39   3
M  END
>  <minimizedAffinity>  (1) 
-5.17161322

>  <minimizedRMSD>  (1) 
0.812992871

$$$$
