
     RDKit          3D

 23 24  0  0  0  0  0  0  0  0999 V2000
   44.0430   35.7250   41.7340 C   0  0  0  0  0  0  0  0  0  0  0  0
   44.4650   35.2080   43.0700 C   0  0  0  0  0  0  0  0  0  0  0  0
   45.1130   33.9580   43.1100 C   0  0  0  0  0  0  0  0  0  0  0  0
   45.5230   33.4420   44.3440 C   0  0  0  0  0  0  0  0  0  0  0  0
   45.2640   34.1960   45.4520 N   0  0  0  0  0  0  0  0  0  0  0  0
   44.6370   35.3930   45.3780 C   0  0  0  0  0  0  0  0  0  0  0  0
   44.2360   35.9050   44.2000 N   0  0  0  0  0  0  0  0  0  0  0  0
   44.3240   33.5670   39.5660 Cl  0  0  0  0  0  0  0  0  0  0  0  0
   42.8120   34.0620   40.2770 C   0  0  0  0  0  0  0  0  0  0  0  0
   42.8180   35.0420   41.2400 C   0  0  0  0  0  0  0  0  0  0  0  0
   41.5930   35.4060   41.7770 C   0  0  0  0  0  0  0  0  0  0  0  0
   40.3900   34.8430   41.3980 C   0  0  0  0  0  0  0  0  0  0  0  0
   40.3780   33.8520   40.4250 C   0  0  0  0  0  0  0  0  0  0  0  0
   41.6060   33.5030   39.9030 C   0  0  0  0  0  0  0  0  0  0  0  0
   43.8408   36.8031   41.8169 H   0  0  0  0  0  0  0  0  0  0  0  0
   44.8558   35.5293   41.0191 H   0  0  0  0  0  0  0  0  0  0  0  0
   45.2944   33.3947   42.1827 H   0  0  0  0  0  0  0  0  0  0  0  0
   46.0325   32.4699   44.4182 H   0  0  0  0  0  0  0  0  0  0  0  0
   44.4509   35.9603   46.3019 H   0  0  0  0  0  0  0  0  0  0  0  0
   41.5781   36.1886   42.5498 H   0  0  0  0  0  0  0  0  0  0  0  0
   39.4502   35.1764   41.8624 H   0  0  0  0  0  0  0  0  0  0  0  0
   39.4452   33.3742   40.0908 H   0  0  0  0  0  0  0  0  0  0  0  0
   41.6262   32.7202   39.1304 H   0  0  0  0  0  0  0  0  0  0  0  0
  1  2  1  0
  2  3  2  0
  2  7  1  0
  3  4  1  0
  4  5  2  0
  6  5  1  0
  7  6  2  0
  8  9  1  0
  9 10  2  0
 10  1  1  0
 10 11  1  0
 12 11  2  0
 13 12  1  0
 14  9  1  0
 14 13  2  0
  1 15  1  0
  1 16  1  0
  3 17  1  0
  4 18  1  0
  6 19  1  0
 11 20  1  0
 12 21  1  0
 13 22  1  0
 14 23  1  0
M  ISO  8  15   8  16   8  17  14  18  14  19  14  20  14  21  14  22  14
M  ISO  1  23  14
M  END
>  <minimizedAffinity>  (1) 
-4.29512262

>  <minimizedRMSD>  (1) 
1.85184526

$$$$
