
     RDKit          3D

 14 14  0  0  0  0  0  0  0  0999 V2000
   45.5990   34.9520   43.8960 C   0  0  0  0  0  0  0  0  0  0  0  0
   46.6860   34.3320   43.2820 C   0  0  0  0  0  0  0  0  0  0  0  0
   47.3280   33.2800   43.9640 C   0  0  0  0  0  0  0  0  0  0  0  0
   46.8380   32.9400   45.1800 N   0  0  0  0  0  0  0  0  0  0  0  0
   45.7800   33.5570   45.7550 C   0  0  0  0  0  0  0  0  0  0  0  0
   45.1550   34.5750   45.1020 N   0  0  0  0  0  0  0  0  0  0  0  0
   44.9250   36.0700   43.1610 C   0  0  0  0  0  0  0  0  0  0  0  0
   44.8180   37.2090   43.9910 O   0  0  0  0  0  0  0  0  0  0  0  0
   47.0336   34.6561   42.2900 H   0  0  0  0  0  0  0  0  0  0  0  0
   48.1912   32.7565   43.5273 H   0  0  0  0  0  0  0  0  0  0  0  0
   45.4262   33.2373   46.7463 H   0  0  0  0  0  0  0  0  0  0  0  0
   45.5154   36.3255   42.2687 H   0  0  0  0  0  0  0  0  0  0  0  0
   43.9159   35.7467   42.8656 H   0  0  0  0  0  0  0  0  0  0  0  0
   44.8443   36.9292   44.9403 H   0  0  0  0  0  0  0  0  0  0  0  0
  1  6  2  0
  2  1  1  0
  2  3  2  0
  3  4  1  0
  4  5  2  0
  6  5  1  0
  7  1  1  0
  7  8  1  0
  2  9  1  0
  3 10  1  0
  5 11  1  0
  7 12  1  0
  7 13  1  0
  8 14  1  0
M  ISO  6   9  14  10  14  11  14  12   8  13   8  14   3
M  END
>  <minimizedAffinity>  (1) 
-3.04937768

>  <minimizedRMSD>  (1) 
0.524674475

$$$$
