
     RDKit          3D

 45 47  0  0  1  0  0  0  0  0999 V2000
   47.1300   33.5970   44.1120 C   0  0  0  0  0  0  0  0  0  0  0  0
   44.7280   36.2100   43.4610 C   0  0  1  0  0  0  0  0  0  0  0  0
   45.9110   35.4200   42.8850 C   0  0  0  0  0  0  0  0  0  0  0  0
   45.7850   34.1530   43.6570 C   0  0  2  0  0  0  0  0  0  0  0  0
   44.9190   34.3340   44.6960 O   0  0  0  0  0  0  0  0  0  0  0  0
   44.6920   35.6840   44.8760 C   0  0  0  0  0  0  0  0  0  0  0  0
   45.0100   37.5850   43.4090 O   0  0  0  0  0  0  0  0  0  0  0  0
   49.0880   33.4250   42.6410 C   0  0  0  0  0  0  0  0  0  0  0  0
   47.8830   33.0120   42.9920 C   0  0  0  0  0  0  0  0  0  0  0  0
   49.7530   32.7780   41.5150 C   0  0  0  0  0  0  0  0  0  0  0  0
   51.0360   32.2460   41.7530 C   0  0  0  0  0  0  0  0  0  0  0  0
   51.7250   31.6130   40.7070 C   0  0  0  0  0  0  0  0  0  0  0  0
   51.0970   31.5490   39.4930 N   0  0  0  0  0  0  0  0  0  0  0  0
   49.8600   32.0760   39.3130 C   0  0  0  0  0  0  0  0  0  0  0  0
   49.2100   32.6730   40.2970 N   0  0  0  0  0  0  0  0  0  0  0  0
   49.3050   31.9310   37.9430 C   0  0  0  0  0  0  0  0  0  0  0  0
   50.2990   31.4150   36.9510 C   0  0  0  0  0  0  0  0  0  0  0  0
   49.5730   31.1550   35.6530 C   0  0  0  0  0  0  0  0  0  0  0  0
   48.7470   32.3240   35.1800 C   0  0  0  0  0  0  0  0  0  0  0  0
   47.8160   32.8350   36.2670 C   0  0  0  0  0  0  0  0  0  0  0  0
   48.7220   33.2460   37.4320 C   0  0  0  0  0  0  0  0  0  0  0  0
   47.7223   34.4124   44.5527 H   0  0  0  0  0  0  0  0  0  0  0  0
   46.9414   32.8037   44.8504 H   0  0  0  0  0  0  0  0  0  0  0  0
   43.7711   36.0930   42.9312 H   0  0  0  0  0  0  0  0  0  0  0  0
   45.7997   35.2507   41.8038 H   0  0  0  0  0  0  0  0  0  0  0  0
   46.8867   35.9198   42.9759 H   0  0  0  0  0  0  0  0  0  0  0  0
   45.3731   33.3852   42.9855 H   0  0  0  0  0  0  0  0  0  0  0  0
   45.4809   36.1417   45.4910 H   0  0  0  0  0  0  0  0  0  0  0  0
   43.7525   35.9053   45.4035 H   0  0  0  0  0  0  0  0  0  0  0  0
   45.0832   37.9419   44.3295 H   0  0  0  0  0  0  0  0  0  0  0  0
   49.5811   34.2421   43.1880 H   0  0  0  0  0  0  0  0  0  0  0  0
   47.4218   32.1931   42.4204 H   0  0  0  0  0  0  0  0  0  0  0  0
   51.4935   32.3262   42.7501 H   0  0  0  0  0  0  0  0  0  0  0  0
   52.7277   31.1862   40.8568 H   0  0  0  0  0  0  0  0  0  0  0  0
   48.5047   31.1819   38.0350 H   0  0  0  0  0  0  0  0  0  0  0  0
   51.0904   32.1624   36.7926 H   0  0  0  0  0  0  0  0  0  0  0  0
   50.7620   30.4885   37.3214 H   0  0  0  0  0  0  0  0  0  0  0  0
   50.3180   30.9195   34.8788 H   0  0  0  0  0  0  0  0  0  0  0  0
   48.8789   30.3207   35.8326 H   0  0  0  0  0  0  0  0  0  0  0  0
   49.4224   33.1381   34.8783 H   0  0  0  0  0  0  0  0  0  0  0  0
   48.1309   31.9865   34.3335 H   0  0  0  0  0  0  0  0  0  0  0  0
   47.2419   33.7004   35.9042 H   0  0  0  0  0  0  0  0  0  0  0  0
   47.0882   32.0681   36.5707 H   0  0  0  0  0  0  0  0  0  0  0  0
   49.5214   33.9173   37.0851 H   0  0  0  0  0  0  0  0  0  0  0  0
   48.1761   33.7942   38.2140 H   0  0  0  0  0  0  0  0  0  0  0  0
  2  6  1  0
  3  2  1  0
  3  4  1  0
  4  1  1  0
  4  5  1  0
  5  6  1  0
  7  2  1  0
  8  9  2  0
  9  1  1  0
 10 11  2  0
 10  8  1  0
 12 11  1  0
 13 12  2  0
 14 13  1  0
 14 15  2  0
 15 10  1  0
 16 14  1  0
 17 16  1  0
 18 17  1  0
 19 18  1  0
 19 20  1  0
 20 21  1  0
 21 16  1  0
  1 22  1  0
  1 23  1  0
  2 24  1  6
  3 25  1  0
  3 26  1  0
  4 27  1  6
  6 28  1  0
  6 29  1  0
  7 30  1  0
  8 31  1  0
  9 32  1  0
 11 33  1  0
 12 34  1  0
 16 35  1  0
 17 36  1  0
 17 37  1  0
 18 38  1  0
 18 39  1  0
 19 40  1  0
 19 41  1  0
 20 42  1  0
 20 43  1  0
 21 44  1  0
 21 45  1  0
M  ISO  8  22   8  23   8  24  13  25  13  26  13  27  13  28  13  29  13
M  ISO  8  30   3  33  14  34  14  35  13  36  13  37  13  38  13  39  13
M  ISO  6  40  13  41  13  42  13  43  13  44  13  45  13
M  END
>  <minimizedAffinity>  (1) 
-5.11048031

>  <minimizedRMSD>  (1) 
0.744587421

$$$$
