
     RDKit          3D

 37 39  0  0  1  0  0  0  0  0999 V2000
   47.6650   34.8670   41.5360 C   0  0  1  0  0  0  0  0  0  0  0  0
   48.9660   34.0800   41.4130 C   0  0  0  0  0  0  0  0  0  0  0  0
   48.3260   34.7520   40.2290 C   0  0  1  0  0  0  0  0  0  0  0  0
   48.2200   34.4580   37.8030 C   0  0  2  0  0  0  0  0  0  0  0  0
   47.9330   33.8240   39.1120 C   0  0  1  0  0  0  0  0  0  0  0  0
   48.6080   32.6340   39.3670 O   0  0  0  0  0  0  0  0  0  0  0  0
   48.6300   31.7360   38.3370 C   0  0  0  0  0  0  0  0  0  0  0  0
   49.4160   32.3620   37.1950 C   0  0  1  0  0  0  0  0  0  0  0  0
   48.5810   33.4880   36.6930 C   0  0  1  0  0  0  0  0  0  0  0  0
   49.2210   35.4500   37.9040 O   0  0  0  0  0  0  0  0  0  0  0  0
   50.6700   32.7680   37.6300 O   0  0  0  0  0  0  0  0  0  0  0  0
   47.4460   33.0150   36.0720 O   0  0  0  0  0  0  0  0  0  0  0  0
   46.4430   34.0910   41.8570 C   0  0  0  0  0  0  0  0  0  0  0  0
   45.8500   34.4730   43.1710 C   0  0  0  0  0  0  0  0  0  0  0  0
   45.2050   35.6860   43.1830 C   0  0  0  0  0  0  0  0  0  0  0  0
   44.6100   36.1360   44.3580 C   0  0  0  0  0  0  0  0  0  0  0  0
   44.7100   35.3170   45.4470 N   0  0  0  0  0  0  0  0  0  0  0  0
   45.3530   34.1220   45.4110 C   0  0  0  0  0  0  0  0  0  0  0  0
   45.9190   33.7060   44.2750 N   0  0  0  0  0  0  0  0  0  0  0  0
   47.2969   35.7264   42.1156 H   0  0  0  0  0  0  0  0  0  0  0  0
   49.8983   34.4777   41.8405 H   0  0  0  0  0  0  0  0  0  0  0  0
   49.2978   33.0602   41.6578 H   0  0  0  0  0  0  0  0  0  0  0  0
   48.5525   35.5331   39.4884 H   0  0  0  0  0  0  0  0  0  0  0  0
   47.2635   34.9214   37.5195 H   0  0  0  0  0  0  0  0  0  0  0  0
   46.8558   33.6069   39.0630 H   0  0  0  0  0  0  0  0  0  0  0  0
   49.1180   30.8052   38.6617 H   0  0  0  0  0  0  0  0  0  0  0  0
   47.6065   31.4949   38.0139 H   0  0  0  0  0  0  0  0  0  0  0  0
   49.6109   31.6484   36.3808 H   0  0  0  0  0  0  0  0  0  0  0  0
   49.1807   34.0391   35.9536 H   0  0  0  0  0  0  0  0  0  0  0  0
   49.4074   35.6347   38.8586 H   0  0  0  0  0  0  0  0  0  0  0  0
   50.6898   32.7744   38.6198 H   0  0  0  0  0  0  0  0  0  0  0  0
   46.7857   32.7398   36.7564 H   0  0  0  0  0  0  0  0  0  0  0  0
   45.6963   34.2676   41.0688 H   0  0  0  0  0  0  0  0  0  0  0  0
   46.7277   33.0301   41.9157 H   0  0  0  0  0  0  0  0  0  0  0  0
   45.1591   36.2976   42.2699 H   0  0  0  0  0  0  0  0  0  0  0  0
   44.0859   37.1019   44.4074 H   0  0  0  0  0  0  0  0  0  0  0  0
   45.4078   33.4979   46.3151 H   0  0  0  0  0  0  0  0  0  0  0  0
  1 13  1  0
  2  1  1  0
  3  2  1  0
  3  1  1  0
  4 10  1  0
  4  5  1  0
  5  6  1  0
  5  3  1  0
  7  6  1  0
  8 11  1  0
  8  7  1  0
  9 12  1  0
  9  8  1  0
  9  4  1  0
 13 14  1  0
 14 15  2  0
 14 19  1  0
 15 16  1  0
 16 17  2  0
 18 17  1  0
 19 18  2  0
  1 20  1  1
  2 21  1  0
  2 22  1  0
  3 23  1  6
  4 24  1  6
  5 25  1  6
  7 26  1  0
  7 27  1  0
  8 28  1  6
  9 29  1  6
 10 30  1  0
 11 31  1  0
 12 32  1  0
 13 33  1  0
 13 34  1  0
 15 35  1  0
 16 36  1  0
 18 37  1  0
M  ISO  8  20  13  21  13  22  13  23  13  24  13  25  13  26  13  27  13
M  ISO  8  28  13  29  13  30   3  31   3  32   3  33   8  34   8  35  14
M  ISO  2  36  14  37  14
M  END
>  <minimizedAffinity>  (1) 
-6.24194908

>  <minimizedRMSD>  (1) 
2.91583753

$$$$
