
     RDKit          3D

 36 38  0  0  1  0  0  0  0  0999 V2000
   48.5270   32.1740   42.5680 C   0  0  0  0  0  0  0  0  0  0  0  0
   47.9880   33.3620   42.8260 C   0  0  0  0  0  0  0  0  0  0  0  0
   49.3290   32.0170   41.3760 C   0  0  0  0  0  0  0  0  0  0  0  0
   50.6260   31.5200   41.5350 C   0  0  0  0  0  0  0  0  0  0  0  0
   51.4310   31.3570   40.3850 C   0  0  0  0  0  0  0  0  0  0  0  0
   50.9070   31.6950   39.1650 N   0  0  0  0  0  0  0  0  0  0  0  0
   49.6370   32.1760   39.0700 C   0  0  0  0  0  0  0  0  0  0  0  0
   48.9070   32.3160   40.1630 N   0  0  0  0  0  0  0  0  0  0  0  0
   49.1460   32.5140   37.7380 C   0  0  0  0  0  0  0  0  0  0  0  0
   48.3620   33.6620   37.6380 C   0  0  0  0  0  0  0  0  0  0  0  0
   48.0050   33.8070   36.3330 N   0  0  0  0  0  0  0  0  0  0  0  0
   48.5490   32.7820   35.6410 C   0  0  0  0  0  0  0  0  0  0  0  0
   49.2460   31.9940   36.4990 N   0  0  0  0  0  0  0  0  0  0  0  0
   47.1550   33.6250   44.0150 C   0  0  0  0  0  0  0  0  0  0  0  0
   44.6760   36.2040   43.4890 C   0  0  1  0  0  0  0  0  0  0  0  0
   45.8440   35.4320   42.8700 C   0  0  0  0  0  0  0  0  0  0  0  0
   45.7740   34.1610   43.6350 C   0  0  2  0  0  0  0  0  0  0  0  0
   44.9710   34.3330   44.7310 O   0  0  0  0  0  0  0  0  0  0  0  0
   44.7350   35.6790   44.9110 C   0  0  0  0  0  0  0  0  0  0  0  0
   44.9460   37.5800   43.4440 O   0  0  0  0  0  0  0  0  0  0  0  0
   48.3653   31.3260   43.2497 H   0  0  0  0  0  0  0  0  0  0  0  0
   48.1716   34.1861   42.1209 H   0  0  0  0  0  0  0  0  0  0  0  0
   51.0111   31.2617   42.5325 H   0  0  0  0  0  0  0  0  0  0  0  0
   52.4563   30.9671   40.4676 H   0  0  0  0  0  0  0  0  0  0  0  0
   48.0821   34.3307   38.4654 H   0  0  0  0  0  0  0  0  0  0  0  0
   47.4241   34.5627   35.9427 H   0  0  0  0  0  0  0  0  0  0  0  0
   48.4442   32.6135   34.5590 H   0  0  0  0  0  0  0  0  0  0  0  0
   47.0306   32.6875   44.5768 H   0  0  0  0  0  0  0  0  0  0  0  0
   47.6614   34.3878   44.6247 H   0  0  0  0  0  0  0  0  0  0  0  0
   43.7003   36.0761   42.9974 H   0  0  0  0  0  0  0  0  0  0  0  0
   45.6936   35.2652   41.7932 H   0  0  0  0  0  0  0  0  0  0  0  0
   46.8139   35.9474   42.9309 H   0  0  0  0  0  0  0  0  0  0  0  0
   45.3308   33.3923   42.9849 H   0  0  0  0  0  0  0  0  0  0  0  0
   45.5525   36.1526   45.4744 H   0  0  0  0  0  0  0  0  0  0  0  0
   43.8231   35.8873   45.4899 H   0  0  0  0  0  0  0  0  0  0  0  0
   45.0153   37.9330   44.3663 H   0  0  0  0  0  0  0  0  0  0  0  0
  1  2  2  0
  2 14  1  0
  3  4  2  0
  3  1  1  0
  5  4  1  0
  6  5  2  0
  7  6  1  0
  7  8  2  0
  8  3  1  0
  9  7  1  0
 10  9  2  0
 11 10  1  0
 12 11  1  0
 12 13  2  0
 13  9  1  0
 15 19  1  0
 16 15  1  0
 16 17  1  0
 17 14  1  0
 17 18  1  0
 18 19  1  0
 20 15  1  0
  1 21  1  0
  2 22  1  0
  4 23  1  0
  5 24  1  0
 10 25  1  0
 11 26  1  0
 12 27  1  0
 14 28  1  0
 14 29  1  0
 15 30  1  6
 16 31  1  0
 16 32  1  0
 17 33  1  6
 19 34  1  0
 19 35  1  0
 20 36  1  0
M  ISO  8  23  14  24  14  25  14  26   9  27  14  28   8  29   8  30  13
M  ISO  6  31  13  32  13  33  13  34  13  35  13  36   3
M  END
>  <minimizedAffinity>  (1) 
-4.92815113

>  <minimizedRMSD>  (1) 
0.95890975

$$$$
