
     RDKit          3D

 22 23  0  0  1  0  0  0  0  0999 V2000
   47.2910   33.9980   42.5970 C   0  0  0  0  0  0  0  0  0  0  0  0
   46.3570   34.3590   43.6870 C   0  0  0  0  0  0  0  0  0  0  0  0
   45.5710   35.4590   43.4210 C   0  0  0  0  0  0  0  0  0  0  0  0
   44.6500   35.9170   44.3750 C   0  0  0  0  0  0  0  0  0  0  0  0
   44.6010   35.2110   45.5320 N   0  0  0  0  0  0  0  0  0  0  0  0
   45.3780   34.1260   45.7850 C   0  0  0  0  0  0  0  0  0  0  0  0
   46.2490   33.7050   44.8680 N   0  0  0  0  0  0  0  0  0  0  0  0
   47.5130   35.1290   41.6470 C   0  0  1  0  0  0  0  0  0  0  0  0
   48.9300   35.6090   41.4880 C   0  0  0  0  0  0  0  0  0  0  0  0
   48.2520   34.8420   40.3840 C   0  0  1  0  0  0  0  0  0  0  0  0
   48.6020   33.4100   40.1750 C   0  0  0  0  0  0  0  0  0  0  0  0
   48.5130   33.1000   38.9980 O   0  0  0  0  0  0  0  0  0  0  0  0
   48.2569   33.7113   43.0385 H   0  0  0  0  0  0  0  0  0  0  0  0
   46.8460   33.1652   42.0327 H   0  0  0  0  0  0  0  0  0  0  0  0
   45.6660   35.9801   42.4569 H   0  0  0  0  0  0  0  0  0  0  0  0
   44.0087   36.7926   44.1961 H   0  0  0  0  0  0  0  0  0  0  0  0
   45.2887   33.5958   46.7447 H   0  0  0  0  0  0  0  0  0  0  0  0
   46.5482   35.6011   41.8840 H   0  0  0  0  0  0  0  0  0  0  0  0
   49.1386   36.6822   41.3666 H   0  0  0  0  0  0  0  0  0  0  0  0
   49.8625   35.4949   42.0602 H   0  0  0  0  0  0  0  0  0  0  0  0
   48.1105   35.0358   39.3105 H   0  0  0  0  0  0  0  0  0  0  0  0
   48.9021   32.7205   40.9778 H   0  0  0  0  0  0  0  0  0  0  0  0
  1  2  1  0
  2  7  1  0
  3  2  2  0
  3  4  1  0
  4  5  2  0
  5  6  1  0
  7  6  2  0
  8  1  1  0
  9  8  1  0
 10  9  1  0
 10  8  1  0
 11 10  1  0
 12 11  2  0
  1 13  1  0
  1 14  1  0
  3 15  1  0
  4 16  1  0
  6 17  1  0
  8 18  1  6
  9 19  1  0
  9 20  1  0
 10 21  1  6
 11 22  1  0
M  ISO  8  13   8  14   8  15  14  16  14  17  14  18  13  19  13  20  13
M  ISO  2  21  13  22   6
M  END
>  <minimizedAffinity>  (1) 
-4.27279997

>  <minimizedRMSD>  (1) 
0.706432164

$$$$
