
     RDKit          3D

 26 27  0  0  1  0  0  0  0  0999 V2000
   47.4120   33.9050   42.7260 C   0  0  0  0  0  0  0  0  0  0  0  0
   46.3970   34.4290   43.6580 C   0  0  0  0  0  0  0  0  0  0  0  0
   45.6730   35.5240   43.2390 C   0  0  0  0  0  0  0  0  0  0  0  0
   44.6760   36.0420   44.0970 C   0  0  0  0  0  0  0  0  0  0  0  0
   44.4980   35.4160   45.2960 N   0  0  0  0  0  0  0  0  0  0  0  0
   45.2420   34.3370   45.6590 C   0  0  0  0  0  0  0  0  0  0  0  0
   46.1850   33.8540   44.8390 N   0  0  0  0  0  0  0  0  0  0  0  0
   47.4540   34.6830   41.4450 C   0  0  1  0  0  0  0  0  0  0  0  0
   48.7420   35.4300   41.2110 C   0  0  0  0  0  0  0  0  0  0  0  0
   48.4130   34.2090   40.4030 C   0  0  2  0  0  0  0  0  0  0  0  0
   48.1750   34.4850   38.9380 C   0  0  0  0  0  0  0  0  0  0  0  0
   47.2660   33.4510   38.3100 C   0  0  0  0  0  0  0  0  0  0  0  0
   48.3992   33.9611   43.2080 H   0  0  0  0  0  0  0  0  0  0  0  0
   47.1458   32.8656   42.4834 H   0  0  0  0  0  0  0  0  0  0  0  0
   45.8665   35.9847   42.2590 H   0  0  0  0  0  0  0  0  0  0  0  0
   44.0691   36.9134   43.8099 H   0  0  0  0  0  0  0  0  0  0  0  0
   45.0682   33.8571   46.6334 H   0  0  0  0  0  0  0  0  0  0  0  0
   46.3825   34.9316   41.4440 H   0  0  0  0  0  0  0  0  0  0  0  0
   48.7251   36.4239   40.7399 H   0  0  0  0  0  0  0  0  0  0  0  0
   49.5872   35.7449   41.8407 H   0  0  0  0  0  0  0  0  0  0  0  0
   48.8502   33.2196   40.2029 H   0  0  0  0  0  0  0  0  0  0  0  0
   47.7110   35.4769   38.8337 H   0  0  0  0  0  0  0  0  0  0  0  0
   49.1453   34.4451   38.4213 H   0  0  0  0  0  0  0  0  0  0  0  0
   46.7616   32.8772   39.1014 H   0  0  0  0  0  0  0  0  0  0  0  0
   46.5133   33.9551   37.6860 H   0  0  0  0  0  0  0  0  0  0  0  0
   47.8624   32.7691   37.6860 H   0  0  0  0  0  0  0  0  0  0  0  0
  1  2  1  0
  2  7  1  0
  3  2  2  0
  3  4  1  0
  4  5  2  0
  5  6  1  0
  7  6  2  0
  8  1  1  0
  9  8  1  0
 10  9  1  0
 10  8  1  0
 11 10  1  0
 12 11  1  0
  1 13  1  0
  1 14  1  0
  3 15  1  0
  4 16  1  0
  6 17  1  0
  8 18  1  6
  9 19  1  0
  9 20  1  0
 10 21  1  6
 11 22  1  0
 11 23  1  0
 12 24  1  0
 12 25  1  0
 12 26  1  0
M  ISO  8  13   8  14   8  15  14  16  14  17  14  18  13  19  13  20  13
M  ISO  6  21  13  22   8  23   8  24   8  25   8  26   8
M  END
>  <minimizedAffinity>  (1) 
-4.21062899

>  <minimizedRMSD>  (1) 
0.538787603

$$$$
