
     RDKit          3D

 26 27  0  0  1  0  0  0  0  0999 V2000
   47.5800   35.2020   41.7870 C   0  0  1  0  0  0  0  0  0  0  0  0
   49.0540   35.5320   41.6010 C   0  0  0  0  0  0  0  0  0  0  0  0
   48.2460   34.9450   40.4780 C   0  0  1  0  0  0  0  0  0  0  0  0
   47.2590   34.0090   42.6100 C   0  0  0  0  0  0  0  0  0  0  0  0
   46.3610   34.3030   43.7420 C   0  0  0  0  0  0  0  0  0  0  0  0
   45.5150   35.3760   43.5530 C   0  0  0  0  0  0  0  0  0  0  0  0
   44.6180   35.7640   44.5580 C   0  0  0  0  0  0  0  0  0  0  0  0
   44.6510   35.0160   45.7000 N   0  0  0  0  0  0  0  0  0  0  0  0
   45.4910   33.9620   45.8690 C   0  0  0  0  0  0  0  0  0  0  0  0
   46.3360   33.6170   44.8920 N   0  0  0  0  0  0  0  0  0  0  0  0
   48.4600   33.6210   40.1490 O   0  0  0  0  0  0  0  0  0  0  0  0
   48.2730   34.6190   37.6870 O   0  0  0  0  0  0  0  0  0  0  0  0
   48.4130   33.3460   38.4860 P   0  0  0  0  0  0  0  0  0  0  0  0
   49.8980   32.6260   38.0400 O   0  0  0  0  0  0  0  0  0  0  0  0
   47.1540   32.2700   38.1320 O   0  0  0  0  0  0  0  0  0  0  0  0
   46.6934   35.7634   42.1166 H   0  0  0  0  0  0  0  0  0  0  0  0
   49.3840   36.5803   41.5551 H   0  0  0  0  0  0  0  0  0  0  0  0
   49.9878   35.2645   42.1172 H   0  0  0  0  0  0  0  0  0  0  0  0
   48.0611   35.2426   39.4353 H   0  0  0  0  0  0  0  0  0  0  0  0
   46.7742   33.2609   41.9655 H   0  0  0  0  0  0  0  0  0  0  0  0
   48.2057   33.6421   43.0332 H   0  0  0  0  0  0  0  0  0  0  0  0
   45.5445   35.9325   42.6046 H   0  0  0  0  0  0  0  0  0  0  0  0
   43.9324   36.6153   44.4347 H   0  0  0  0  0  0  0  0  0  0  0  0
   45.4760   33.3922   46.8098 H   0  0  0  0  0  0  0  0  0  0  0  0
   50.4038   32.3808   38.8550 H   0  0  0  0  0  0  0  0  0  0  0  0
   46.7604   31.9336   38.9758 H   0  0  0  0  0  0  0  0  0  0  0  0
  1  4  1  0
  2  1  1  0
  3  2  1  0
  3  1  1  0
  4  5  1  0
  5 10  1  0
  6  5  2  0
  6  7  1  0
  7  8  2  0
  8  9  1  0
 10  9  2  0
 11  3  1  0
 12 13  2  0
 13 11  1  0
 14 13  1  0
 15 13  1  0
  1 16  1  6
  2 17  1  0
  2 18  1  0
  3 19  1  6
  4 20  1  0
  4 21  1  0
  6 22  1  0
  7 23  1  0
  9 24  1  0
 14 25  1  0
 15 26  1  0
M  ISO  8  16  13  17  13  18  13  19  13  20   8  21   8  22  14  23  14
M  ISO  3  24  14  25   3  26   3
M  END
>  <minimizedAffinity>  (1) 
-4.63350296

>  <minimizedRMSD>  (1) 
0.930197358

$$$$
