
     RDKit          3D

 36 38  0  0  1  0  0  0  0  0999 V2000
   47.1400   33.5660   44.1860 C   0  0  0  0  0  0  0  0  0  0  0  0
   44.7650   36.1880   43.4140 C   0  0  1  0  0  0  0  0  0  0  0  0
   45.9680   35.3890   42.8980 C   0  0  0  0  0  0  0  0  0  0  0  0
   45.8160   34.1410   43.6770 C   0  0  2  0  0  0  0  0  0  0  0  0
   44.9180   34.3350   44.6980 O   0  0  0  0  0  0  0  0  0  0  0  0
   44.6690   35.6720   44.8220 C   0  0  0  0  0  0  0  0  0  0  0  0
   45.0630   37.5540   43.3520 O   0  0  0  0  0  0  0  0  0  0  0  0
   48.3980   32.1080   42.6590 C   0  0  0  0  0  0  0  0  0  0  0  0
   48.0920   33.3330   43.0820 C   0  0  0  0  0  0  0  0  0  0  0  0
   49.3460   31.9800   41.5650 C   0  0  0  0  0  0  0  0  0  0  0  0
   50.6700   31.6530   41.8820 C   0  0  0  0  0  0  0  0  0  0  0  0
   51.6160   31.5210   40.8460 C   0  0  0  0  0  0  0  0  0  0  0  0
   51.1970   31.7170   39.5780 N   0  0  0  0  0  0  0  0  0  0  0  0
   49.9040   32.0330   39.3060 C   0  0  0  0  0  0  0  0  0  0  0  0
   49.0330   32.1520   40.2970 N   0  0  0  0  0  0  0  0  0  0  0  0
   49.4420   32.2500   37.9100 C   0  0  0  0  0  0  0  0  0  0  0  0
   49.6130   31.2970   36.8910 C   0  0  0  0  0  0  0  0  0  0  0  0
   49.1420   31.6210   35.6460 C   0  0  0  0  0  0  0  0  0  0  0  0
   48.5310   32.8190   35.4010 C   0  0  0  0  0  0  0  0  0  0  0  0
   48.6070   33.6350   37.1320 S   0  0  0  0  0  0  0  0  0  0  0  0
   47.5865   34.2750   44.8986 H   0  0  0  0  0  0  0  0  0  0  0  0
   46.9320   32.6005   44.6702 H   0  0  0  0  0  0  0  0  0  0  0  0
   43.8250   36.0756   42.8539 H   0  0  0  0  0  0  0  0  0  0  0  0
   45.8985   35.2035   41.8160 H   0  0  0  0  0  0  0  0  0  0  0  0
   46.9389   35.8911   43.0211 H   0  0  0  0  0  0  0  0  0  0  0  0
   45.4228   33.3779   42.9892 H   0  0  0  0  0  0  0  0  0  0  0  0
   45.4197   36.1520   45.4670 H   0  0  0  0  0  0  0  0  0  0  0  0
   43.6937   35.8813   45.2856 H   0  0  0  0  0  0  0  0  0  0  0  0
   45.1421   37.9165   44.2698 H   0  0  0  0  0  0  0  0  0  0  0  0
   47.9465   31.2192   43.1239 H   0  0  0  0  0  0  0  0  0  0  0  0
   48.5634   34.1985   42.5935 H   0  0  0  0  0  0  0  0  0  0  0  0
   50.9688   31.5006   42.9296 H   0  0  0  0  0  0  0  0  0  0  0  0
   52.6636   31.2661   41.0639 H   0  0  0  0  0  0  0  0  0  0  0  0
   50.1041   30.3320   37.0850 H   0  0  0  0  0  0  0  0  0  0  0  0
   49.2583   30.8997   34.8237 H   0  0  0  0  0  0  0  0  0  0  0  0
   48.1094   33.2091   34.4628 H   0  0  0  0  0  0  0  0  0  0  0  0
  2  6  1  0
  3  2  1  0
  3  4  1  0
  4  1  1  0
  4  5  1  0
  5  6  1  0
  7  2  1  0
  8  9  2  0
  9  1  1  0
 10 11  2  0
 10  8  1  0
 12 11  1  0
 13 12  2  0
 14 13  1  0
 14 15  2  0
 15 10  1  0
 16 14  1  0
 17 16  2  0
 18 17  1  0
 19 18  2  0
 19 20  1  0
 20 16  1  0
  1 21  1  0
  1 22  1  0
  2 23  1  6
  3 24  1  0
  3 25  1  0
  4 26  1  6
  6 27  1  0
  6 28  1  0
  7 29  1  0
  8 30  1  0
  9 31  1  0
 11 32  1  0
 12 33  1  0
 17 34  1  0
 18 35  1  0
 19 36  1  0
M  ISO  8  21   8  22   8  23  13  24  13  25  13  26  13  27  13  28  13
M  ISO  6  29   3  32  14  33  14  34  14  35  14  36  14
M  END
>  <minimizedAffinity>  (1) 
-4.76715469

>  <minimizedRMSD>  (1) 
0.619128108

$$$$
