
     RDKit          3D

 36 38  0  0  1  0  0  0  0  0999 V2000
   47.5640   35.2230   41.6740 C   0  0  1  0  0  0  0  0  0  0  0  0
   49.0580   35.4730   41.5040 C   0  0  0  0  0  0  0  0  0  0  0  0
   48.2320   34.9070   40.3710 C   0  0  1  0  0  0  0  0  0  0  0  0
   47.1490   34.0590   42.4760 C   0  0  0  0  0  0  0  0  0  0  0  0
   46.2790   34.3680   43.6200 C   0  0  0  0  0  0  0  0  0  0  0  0
   45.4900   35.4680   43.4160 C   0  0  0  0  0  0  0  0  0  0  0  0
   44.6130   35.9050   44.4340 C   0  0  0  0  0  0  0  0  0  0  0  0
   44.6340   35.1520   45.5870 N   0  0  0  0  0  0  0  0  0  0  0  0
   45.4230   34.0720   45.7560 C   0  0  0  0  0  0  0  0  0  0  0  0
   46.2340   33.6920   44.7760 N   0  0  0  0  0  0  0  0  0  0  0  0
   48.3830   33.5820   40.0560 O   0  0  0  0  0  0  0  0  0  0  0  0
   48.1870   34.5660   37.5790 O   0  0  0  0  0  0  0  0  0  0  0  0
   48.4250   33.3060   38.3950 P   0  0  1  0  0  0  0  0  0  0  0  0
   49.9630   32.7060   37.9900 O   0  0  0  0  0  0  0  0  0  0  0  0
   47.2630   32.1240   38.0170 O   0  0  0  0  0  0  0  0  0  0  0  0
   46.8210   31.9950   36.7070 C   0  0  0  0  0  0  0  0  0  0  0  0
   47.6870   31.2010   35.9770 C   0  0  0  0  0  0  0  0  0  0  0  0
   47.4410   30.9330   34.6260 C   0  0  0  0  0  0  0  0  0  0  0  0
   46.3160   31.4810   34.0540 C   0  0  0  0  0  0  0  0  0  0  0  0
   45.4570   32.2700   34.7830 C   0  0  0  0  0  0  0  0  0  0  0  0
   45.7000   32.5340   36.1110 C   0  0  0  0  0  0  0  0  0  0  0  0
   46.7155   35.8436   41.9980 H   0  0  0  0  0  0  0  0  0  0  0  0
   49.4429   36.5019   41.4466 H   0  0  0  0  0  0  0  0  0  0  0  0
   49.9691   35.1656   42.0383 H   0  0  0  0  0  0  0  0  0  0  0  0
   48.0729   35.1953   39.3214 H   0  0  0  0  0  0  0  0  0  0  0  0
   46.6092   33.3648   41.8151 H   0  0  0  0  0  0  0  0  0  0  0  0
   48.0712   33.6338   42.8986 H   0  0  0  0  0  0  0  0  0  0  0  0
   45.5387   36.0110   42.4606 H   0  0  0  0  0  0  0  0  0  0  0  0
   43.9609   36.7828   44.3143 H   0  0  0  0  0  0  0  0  0  0  0  0
   45.3950   33.5089   46.7005 H   0  0  0  0  0  0  0  0  0  0  0  0
   50.4688   32.5087   38.8179 H   0  0  0  0  0  0  0  0  0  0  0  0
   48.5776   30.7762   36.4633 H   0  0  0  0  0  0  0  0  0  0  0  0
   48.1260   30.3035   34.0391 H   0  0  0  0  0  0  0  0  0  0  0  0
   46.0995   31.2844   32.9936 H   0  0  0  0  0  0  0  0  0  0  0  0
   44.5655   32.6948   34.2985 H   0  0  0  0  0  0  0  0  0  0  0  0
   45.0101   33.1660   36.6894 H   0  0  0  0  0  0  0  0  0  0  0  0
  1  4  1  0
  2  1  1  0
  3  2  1  0
  3  1  1  0
  4  5  1  0
  5 10  1  0
  6  5  2  0
  6  7  1  0
  7  8  2  0
  8  9  1  0
 10  9  2  0
 11  3  1  0
 13 12  2  0
 13 11  1  0
 14 13  1  0
 15 13  1  0
 16 15  1  0
 17 16  2  0
 18 17  1  0
 19 18  2  0
 19 20  1  0
 20 21  2  0
 21 16  1  0
  1 22  1  6
  2 23  1  0
  2 24  1  0
  3 25  1  6
  4 26  1  0
  4 27  1  0
  6 28  1  0
  7 29  1  0
  9 30  1  0
 14 31  1  0
 17 32  1  0
 18 33  1  0
 19 34  1  0
 20 35  1  0
 21 36  1  0
M  ISO  8  22  13  23  13  24  13  25  13  26   8  27   8  28  14  29  14
M  ISO  7  30  14  31   3  32  14  33  14  34  14  35  14  36  14
M  END
>  <minimizedAffinity>  (1) 
-5.12123966

>  <minimizedRMSD>  (1) 
1.06086087

$$$$
