
     RDKit          3D

 33 35  0  0  1  0  0  0  0  0999 V2000
   47.6690   35.2560   41.8320 C   0  0  1  0  0  0  0  0  0  0  0  0
   49.1840   35.1970   41.7180 C   0  0  0  0  0  0  0  0  0  0  0  0
   48.3130   34.9880   40.5040 C   0  0  1  0  0  0  0  0  0  0  0  0
   47.0070   34.0970   42.4600 C   0  0  0  0  0  0  0  0  0  0  0  0
   46.1850   34.4170   43.6360 C   0  0  0  0  0  0  0  0  0  0  0  0
   45.4070   35.5320   43.4730 C   0  0  0  0  0  0  0  0  0  0  0  0
   44.5710   35.9650   44.5190 C   0  0  0  0  0  0  0  0  0  0  0  0
   44.6020   35.2000   45.6640 N   0  0  0  0  0  0  0  0  0  0  0  0
   45.3770   34.1060   45.7970 C   0  0  0  0  0  0  0  0  0  0  0  0
   46.1500   33.7340   44.7870 N   0  0  0  0  0  0  0  0  0  0  0  0
   48.2140   33.7060   40.0130 O   0  0  0  0  0  0  0  0  0  0  0  0
   46.9490   33.5000   37.6680 O   0  0  0  0  0  0  0  0  0  0  0  0
   48.3060   33.6470   38.3340 P   0  0  1  0  0  0  0  0  0  0  0  0
   49.0010   35.0990   37.7820 O   0  0  0  0  0  0  0  0  0  0  0  0
   49.3300   32.3590   37.9070 O   0  0  0  0  0  0  0  0  0  0  0  0
   49.6940   31.6210   39.0250 C   0  0  0  0  0  0  0  0  0  0  0  0
   51.1430   31.4550   39.2970 C   0  0  0  0  0  0  0  0  0  0  0  0
   50.3560   30.3030   38.7020 C   0  0  0  0  0  0  0  0  0  0  0  0
   46.9520   35.9922   42.2243 H   0  0  0  0  0  0  0  0  0  0  0  0
   49.7810   36.1156   41.8172 H   0  0  0  0  0  0  0  0  0  0  0  0
   49.9834   34.6269   42.2138 H   0  0  0  0  0  0  0  0  0  0  0  0
   48.2561   35.4477   39.5063 H   0  0  0  0  0  0  0  0  0  0  0  0
   46.3582   33.6248   41.7076 H   0  0  0  0  0  0  0  0  0  0  0  0
   47.8118   33.4371   42.8160 H   0  0  0  0  0  0  0  0  0  0  0  0
   45.4355   36.0890   42.5249 H   0  0  0  0  0  0  0  0  0  0  0  0
   43.9338   36.8570   44.4280 H   0  0  0  0  0  0  0  0  0  0  0  0
   45.3682   33.5283   46.7331 H   0  0  0  0  0  0  0  0  0  0  0  0
   49.2665   35.6536   38.5579 H   0  0  0  0  0  0  0  0  0  0  0  0
   48.8454   31.9546   39.6403 H   0  0  0  0  0  0  0  0  0  0  0  0
   51.8817   31.9904   38.6824 H   0  0  0  0  0  0  0  0  0  0  0  0
   51.7853   31.5804   40.1812 H   0  0  0  0  0  0  0  0  0  0  0  0
   50.1376   29.4108   39.3072 H   0  0  0  0  0  0  0  0  0  0  0  0
   50.4473   29.6682   37.8083 H   0  0  0  0  0  0  0  0  0  0  0  0
  1  4  1  0
  2  1  1  0
  3  2  1  0
  3  1  1  0
  4  5  1  0
  5 10  1  0
  6  5  2  0
  6  7  1  0
  7  8  2  0
  8  9  1  0
 10  9  2  0
 11  3  1  0
 13 12  2  0
 13 11  1  0
 14 13  1  0
 15 13  1  0
 15 16  1  0
 16 17  1  0
 18 16  1  0
 18 17  1  0
  1 19  1  6
  2 20  1  0
  2 21  1  0
  3 22  1  6
  4 23  1  0
  4 24  1  0
  6 25  1  0
  7 26  1  0
  9 27  1  0
 14 28  1  0
 16 29  1  0
 17 30  1  0
 17 31  1  0
 18 32  1  0
 18 33  1  0
M  ISO  8  19  13  20  13  21  13  22  13  23   8  24   8  25  14  26  14
M  ISO  7  27  14  28   3  29  13  30  13  31  13  32  13  33  13
M  END
>  <minimizedAffinity>  (1) 
-4.76122904

>  <minimizedRMSD>  (1) 
2.41929626

$$$$
