
     RDKit          3D

 29 30  0  0  1  0  0  0  0  0999 V2000
   47.6060   35.2480   41.8310 C   0  0  1  0  0  0  0  0  0  0  0  0
   49.0950   35.4970   41.6350 C   0  0  0  0  0  0  0  0  0  0  0  0
   48.2450   34.9640   40.5010 C   0  0  1  0  0  0  0  0  0  0  0  0
   47.2350   34.0600   42.6160 C   0  0  0  0  0  0  0  0  0  0  0  0
   46.3510   34.3270   43.7590 C   0  0  0  0  0  0  0  0  0  0  0  0
   45.5090   35.3890   43.5640 C   0  0  0  0  0  0  0  0  0  0  0  0
   44.6060   35.7650   44.5740 C   0  0  0  0  0  0  0  0  0  0  0  0
   44.6440   35.0020   45.7210 N   0  0  0  0  0  0  0  0  0  0  0  0
   45.4830   33.9620   45.8860 C   0  0  0  0  0  0  0  0  0  0  0  0
   46.3160   33.6450   44.9090 N   0  0  0  0  0  0  0  0  0  0  0  0
   48.3980   33.6480   40.1510 O   0  0  0  0  0  0  0  0  0  0  0  0
   48.4190   34.7280   37.7060 O   0  0  0  0  0  0  0  0  0  0  0  0
   48.3990   33.4210   38.4790 P   0  0  1  0  0  0  0  0  0  0  0  0
   49.8300   32.5690   38.0710 O   0  0  0  0  0  0  0  0  0  0  0  0
   47.0750   32.4700   38.0520 O   0  0  0  0  0  0  0  0  0  0  0  0
   46.6170   31.8530   39.2260 C   0  0  0  0  0  0  0  0  0  0  0  0
   47.6990   31.5020   40.0090 F   0  0  0  0  0  0  0  0  0  0  0  0
   45.8510   30.7550   38.9680 F   0  0  0  0  0  0  0  0  0  0  0  0
   45.8380   32.7800   39.9010 F   0  0  0  0  0  0  0  0  0  0  0  0
   46.7617   35.8588   42.1833 H   0  0  0  0  0  0  0  0  0  0  0  0
   49.4823   36.5259   41.5980 H   0  0  0  0  0  0  0  0  0  0  0  0
   50.0154   35.1716   42.1419 H   0  0  0  0  0  0  0  0  0  0  0  0
   48.0586   35.2795   39.4638 H   0  0  0  0  0  0  0  0  0  0  0  0
   46.7236   33.3533   41.9459 H   0  0  0  0  0  0  0  0  0  0  0  0
   48.1708   33.6617   43.0352 H   0  0  0  0  0  0  0  0  0  0  0  0
   45.5390   35.9480   42.6171 H   0  0  0  0  0  0  0  0  0  0  0  0
   43.9147   36.6125   44.4564 H   0  0  0  0  0  0  0  0  0  0  0  0
   45.4757   33.3834   46.8215 H   0  0  0  0  0  0  0  0  0  0  0  0
   50.2962   32.2914   38.8991 H   0  0  0  0  0  0  0  0  0  0  0  0
  1  4  1  0
  2  1  1  0
  3  2  1  0
  3  1  1  0
  4  5  1  0
  5 10  1  0
  6  5  2  0
  6  7  1  0
  7  8  2  0
  8  9  1  0
 10  9  2  0
 11  3  1  0
 13 12  2  0
 13 11  1  0
 14 13  1  0
 15 13  1  0
 15 16  1  0
 16 19  1  0
 16 17  1  0
 18 16  1  0
  1 20  1  6
  2 21  1  0
  2 22  1  0
  3 23  1  6
  4 24  1  0
  4 25  1  0
  6 26  1  0
  7 27  1  0
  9 28  1  0
 14 29  1  0
M  ISO  8  20  13  21  13  22  13  23  13  24   8  25   8  26  14  27  14
M  ISO  2  28  14  29   3
M  END
>  <minimizedAffinity>  (1) 
-4.5091548

>  <minimizedRMSD>  (1) 
0.896603525

$$$$
