
     RDKit          3D

 32 34  0  0  0  0  0  0  0  0999 V2000
   44.8210   35.0180   44.7110 C   0  0  0  0  0  0  0  0  0  0  0  0
   44.9830   34.3520   43.4710 C   0  0  0  0  0  0  0  0  0  0  0  0
   45.5090   33.0680   43.4780 C   0  0  0  0  0  0  0  0  0  0  0  0
   45.8390   32.5250   44.6850 N   0  0  0  0  0  0  0  0  0  0  0  0
   45.6750   33.1780   45.8380 C   0  0  0  0  0  0  0  0  0  0  0  0
   45.1720   34.4160   45.8820 N   0  0  0  0  0  0  0  0  0  0  0  0
   44.5620   35.1110   42.2430 C   0  0  0  0  0  0  0  0  0  0  0  0
   43.0560   35.1720   42.1390 C   0  0  0  0  0  0  0  0  0  0  0  0
   42.5860   35.6100   40.7900 C   0  0  0  0  0  0  0  0  0  0  0  0
   43.1550   34.8880   39.7480 O   0  0  0  0  0  0  0  0  0  0  0  0
   43.9550   33.8380   40.2600 C   0  0  0  0  0  0  0  0  0  0  0  0
   45.0930   34.4930   40.9910 C   0  0  0  0  0  0  0  0  0  0  0  0
   46.0480   32.5420   47.0980 C   0  0  0  0  0  0  0  0  0  0  0  0
   47.3490   32.2510   47.4040 C   0  0  0  0  0  0  0  0  0  0  0  0
   47.7490   31.6520   48.5790 C   0  0  0  0  0  0  0  0  0  0  0  0
   46.7610   31.3480   49.4580 N   0  0  0  0  0  0  0  0  0  0  0  0
   45.4720   31.6330   49.1640 C   0  0  0  0  0  0  0  0  0  0  0  0
   45.0600   32.2270   48.0020 N   0  0  0  0  0  0  0  0  0  0  0  0
   44.4056   36.0364   44.7287 H   0  0  0  0  0  0  0  0  0  0  0  0
   45.6548   32.5075   42.5428 H   0  0  0  0  0  0  0  0  0  0  0  0
   44.9788   36.1236   42.3472 H   0  0  0  0  0  0  0  0  0  0  0  0
   42.6487   34.1712   42.3453 H   0  0  0  0  0  0  0  0  0  0  0  0
   42.7034   35.9147   42.8698 H   0  0  0  0  0  0  0  0  0  0  0  0
   41.4938   35.4873   40.7441 H   0  0  0  0  0  0  0  0  0  0  0  0
   42.8912   36.6593   40.6638 H   0  0  0  0  0  0  0  0  0  0  0  0
   43.3682   33.2137   40.9498 H   0  0  0  0  0  0  0  0  0  0  0  0
   44.3206   33.1845   39.4543 H   0  0  0  0  0  0  0  0  0  0  0  0
   45.8539   33.7398   41.2433 H   0  0  0  0  0  0  0  0  0  0  0  0
   45.5527   35.2650   40.3564 H   0  0  0  0  0  0  0  0  0  0  0  0
   48.1233   32.5110   46.6672 H   0  0  0  0  0  0  0  0  0  0  0  0
   48.8059   31.4334   48.7915 H   0  0  0  0  0  0  0  0  0  0  0  0
   44.7049   31.3702   49.9073 H   0  0  0  0  0  0  0  0  0  0  0  0
  1  6  2  0
  2  3  2  0
  2  1  1  0
  3  4  1  0
  4  5  2  0
  5  6  1  0
  5 13  1  0
  7  2  1  0
  8  7  1  0
  9  8  1  0
 10 11  1  0
 10  9  1  0
 11 12  1  0
 12  7  1  0
 13 14  2  0
 13 18  1  0
 14 15  1  0
 15 16  2  0
 17 16  1  0
 18 17  2  0
  1 19  1  0
  3 20  1  0
  7 21  1  0
  8 22  1  0
  8 23  1  0
  9 24  1  0
  9 25  1  0
 11 26  1  0
 11 27  1  0
 12 28  1  0
 12 29  1  0
 14 30  1  0
 15 31  1  0
 17 32  1  0
M  ISO  8  19  14  20  14  21  13  22  13  23  13  24  13  25  13  26  13
M  ISO  6  27  13  28  13  29  13  30  14  31  14  32  14
M  END
>  <minimizedAffinity>  (1) 
-5.05408239

>  <minimizedRMSD>  (1) 
1.91930258

$$$$
