
     RDKit          3D

 22 23  0  0  0  0  0  0  0  0999 V2000
   44.4610   35.5640   45.1030 C   0  0  0  0  0  0  0  0  0  0  0  0
   45.0960   35.4750   43.8620 C   0  0  0  0  0  0  0  0  0  0  0  0
   46.0660   34.4810   43.6320 C   0  0  0  0  0  0  0  0  0  0  0  0
   46.3270   33.6420   44.6800 N   0  0  0  0  0  0  0  0  0  0  0  0
   45.7050   33.7480   45.8610 C   0  0  0  0  0  0  0  0  0  0  0  0
   44.7780   34.6990   46.0790 N   0  0  0  0  0  0  0  0  0  0  0  0
   46.0200   32.8250   46.9510 C   0  0  0  0  0  0  0  0  0  0  0  0
   47.2060   32.1600   47.0060 C   0  0  0  0  0  0  0  0  0  0  0  0
   47.5510   31.2840   48.0060 C   0  0  0  0  0  0  0  0  0  0  0  0
   46.6150   31.1010   48.9840 N   0  0  0  0  0  0  0  0  0  0  0  0
   45.4390   31.7600   48.9280 C   0  0  0  0  0  0  0  0  0  0  0  0
   45.0990   32.6240   47.9430 N   0  0  0  0  0  0  0  0  0  0  0  0
   43.9490   35.6680   41.8310 C   0  0  0  0  0  0  0  0  0  0  0  0
   43.4900   34.5390   42.1440 O   0  0  0  0  0  0  0  0  0  0  0  0
   44.8780   36.3090   42.7300 N   0  0  0  0  0  0  0  0  0  0  0  0
   43.7029   36.3412   45.2799 H   0  0  0  0  0  0  0  0  0  0  0  0
   46.5836   34.3848   42.6661 H   0  0  0  0  0  0  0  0  0  0  0  0
   47.9334   32.3349   46.1996 H   0  0  0  0  0  0  0  0  0  0  0  0
   48.5196   30.7628   48.0186 H   0  0  0  0  0  0  0  0  0  0  0  0
   44.7107   31.5841   49.7334 H   0  0  0  0  0  0  0  0  0  0  0  0
   43.6485   36.1559   40.8921 H   0  0  0  0  0  0  0  0  0  0  0  0
   45.3158   37.2285   42.5760 H   0  0  0  0  0  0  0  0  0  0  0  0
  1  6  2  0
  2  1  1  0
  3  2  2  0
  3  4  1  0
  4  5  2  0
  5  6  1  0
  5  7  1  0
  7  8  2  0
  7 12  1  0
  8  9  1  0
  9 10  2  0
 11 10  1  0
 12 11  2  0
 13 14  2  0
 13 15  1  0
 15  2  1  0
  1 16  1  0
  3 17  1  0
  8 18  1  0
  9 19  1  0
 11 20  1  0
 13 21  1  0
 15 22  1  0
M  ISO  6  16  14  17  14  18  14  19  14  20  14  21   6
M  END
>  <minimizedAffinity>  (1) 
-4.82890701

>  <minimizedRMSD>  (1) 
0.699295163

$$$$
