
     RDKit          3D

 30 32  0  0  0  0  0  0  0  0999 V2000
   44.9960   34.7810   44.5190 C   0  0  0  0  0  0  0  0  0  0  0  0
   45.0300   34.0140   43.3500 C   0  0  0  0  0  0  0  0  0  0  0  0
   45.4340   32.6760   43.3890 C   0  0  0  0  0  0  0  0  0  0  0  0
   45.7840   32.1730   44.6110 N   0  0  0  0  0  0  0  0  0  0  0  0
   45.7410   32.9370   45.7250 C   0  0  0  0  0  0  0  0  0  0  0  0
   45.3530   34.2300   45.6960 N   0  0  0  0  0  0  0  0  0  0  0  0
   46.1260   32.3570   47.0200 C   0  0  0  0  0  0  0  0  0  0  0  0
   47.4010   31.9200   47.2490 C   0  0  0  0  0  0  0  0  0  0  0  0
   47.8030   31.3710   48.4480 C   0  0  0  0  0  0  0  0  0  0  0  0
   46.8420   31.2830   49.4220 N   0  0  0  0  0  0  0  0  0  0  0  0
   45.5980   31.7150   49.1850 C   0  0  0  0  0  0  0  0  0  0  0  0
   45.1840   32.2590   48.0070 N   0  0  0  0  0  0  0  0  0  0  0  0
   44.6610   34.5560   42.0870 N   0  0  0  0  0  0  0  0  0  0  0  0
   45.1070   34.1800   40.7560 C   0  0  0  0  0  0  0  0  0  0  0  0
   43.7840   34.0780   40.0140 C   0  0  0  0  0  0  0  0  0  0  0  0
   43.0480   35.3140   40.5330 C   0  0  0  0  0  0  0  0  0  0  0  0
   43.7250   35.6400   41.8560 C   0  0  0  0  0  0  0  0  0  0  0  0
   44.6781   35.8333   44.4778 H   0  0  0  0  0  0  0  0  0  0  0  0
   45.4686   32.0577   42.4799 H   0  0  0  0  0  0  0  0  0  0  0  0
   48.1401   32.0106   46.4394 H   0  0  0  0  0  0  0  0  0  0  0  0
   48.8337   31.0241   48.6135 H   0  0  0  0  0  0  0  0  0  0  0  0
   44.8602   31.6247   49.9959 H   0  0  0  0  0  0  0  0  0  0  0  0
   45.7564   34.9514   40.3164 H   0  0  0  0  0  0  0  0  0  0  0  0
   45.7109   33.2610   40.7270 H   0  0  0  0  0  0  0  0  0  0  0  0
   43.2482   33.1529   40.2730 H   0  0  0  0  0  0  0  0  0  0  0  0
   43.8851   34.0427   38.9192 H   0  0  0  0  0  0  0  0  0  0  0  0
   43.1515   36.1517   39.8276 H   0  0  0  0  0  0  0  0  0  0  0  0
   41.9688   35.1367   40.6505 H   0  0  0  0  0  0  0  0  0  0  0  0
   44.2571   36.6004   41.7897 H   0  0  0  0  0  0  0  0  0  0  0  0
   42.9975   35.7340   42.6757 H   0  0  0  0  0  0  0  0  0  0  0  0
  1  6  2  0
  2  3  2  0
  2  1  1  0
  3  4  1  0
  4  5  2  0
  5  7  1  0
  6  5  1  0
  7  8  2  0
  7 12  1  0
  8  9  1  0
  9 10  2  0
 11 10  1  0
 12 11  2  0
 13  2  1  0
 14 13  1  0
 15 16  1  0
 15 14  1  0
 16 17  1  0
 17 13  1  0
  1 18  1  0
  3 19  1  0
  8 20  1  0
  9 21  1  0
 11 22  1  0
 14 23  1  0
 14 24  1  0
 15 25  1  0
 15 26  1  0
 16 27  1  0
 16 28  1  0
 17 29  1  0
 17 30  1  0
M  ISO  8  18  14  19  14  20  14  21  14  22  14  23  13  24  13  25  13
M  ISO  5  26  13  27  13  28  13  29  13  30  13
M  END
>  <minimizedAffinity>  (1) 
-4.69545126

>  <minimizedRMSD>  (1) 
2.22648978

$$$$
