
     RDKit          3D

 28 30  0  0  0  0  0  0  0  0999 V2000
   45.8210   33.6120   45.8930 C   0  0  0  0  0  0  0  0  0  0  0  0
   45.8800   33.1920   44.5530 C   0  0  0  0  0  0  0  0  0  0  0  0
   46.6110   32.0740   44.1700 C   0  0  0  0  0  0  0  0  0  0  0  0
   47.2530   31.4350   45.1880 N   0  0  0  0  0  0  0  0  0  0  0  0
   47.1990   31.8330   46.4660 C   0  0  0  0  0  0  0  0  0  0  0  0
   46.4870   32.9180   46.8280 N   0  0  0  0  0  0  0  0  0  0  0  0
   47.9190   31.0930   47.5020 C   0  0  0  0  0  0  0  0  0  0  0  0
   48.2710   29.8020   47.3320 C   0  0  0  0  0  0  0  0  0  0  0  0
   48.9500   29.0600   48.2740 C   0  0  0  0  0  0  0  0  0  0  0  0
   49.2660   29.7040   49.4250 N   0  0  0  0  0  0  0  0  0  0  0  0
   48.9180   30.9810   49.5980 C   0  0  0  0  0  0  0  0  0  0  0  0
   48.2460   31.7250   48.6700 N   0  0  0  0  0  0  0  0  0  0  0  0
   45.1500   33.9570   43.5450 C   0  0  0  0  0  0  0  0  0  0  0  0
   45.2360   35.3300   43.6720 C   0  0  0  0  0  0  0  0  0  0  0  0
   44.5460   36.0820   42.7190 C   0  0  0  0  0  0  0  0  0  0  0  0
   43.8070   35.5230   41.6930 C   0  0  0  0  0  0  0  0  0  0  0  0
   43.7730   34.1270   41.6390 C   0  0  0  0  0  0  0  0  0  0  0  0
   44.4350   33.3210   42.5520 C   0  0  0  0  0  0  0  0  0  0  0  0
   45.2350   34.5002   46.1720 H   0  0  0  0  0  0  0  0  0  0  0  0
   46.6670   31.7315   43.1262 H   0  0  0  0  0  0  0  0  0  0  0  0
   47.9999   29.3123   46.3850 H   0  0  0  0  0  0  0  0  0  0  0  0
   49.2198   28.0075   48.1025 H   0  0  0  0  0  0  0  0  0  0  0  0
   49.1895   31.4649   50.5478 H   0  0  0  0  0  0  0  0  0  0  0  0
   45.8152   35.8039   44.4782 H   0  0  0  0  0  0  0  0  0  0  0  0
   44.5930   37.1788   42.7884 H   0  0  0  0  0  0  0  0  0  0  0  0
   43.2740   36.1442   40.9581 H   0  0  0  0  0  0  0  0  0  0  0  0
   43.1950   33.6462   40.8360 H   0  0  0  0  0  0  0  0  0  0  0  0
   44.3920   32.2237   42.4874 H   0  0  0  0  0  0  0  0  0  0  0  0
  1  6  2  0
  2  1  1  0
  3  2  2  0
  3  4  1  0
  4  5  2  0
  5  6  1  0
  5  7  1  0
  7 12  1  0
  8  7  2  0
  8  9  1  0
  9 10  2  0
 10 11  1  0
 12 11  2  0
 13 14  2  0
 13  2  1  0
 15 14  1  0
 16 15  2  0
 17 16  1  0
 17 18  2  0
 18 13  1  0
  1 19  1  0
  3 20  1  0
  8 21  1  0
  9 22  1  0
 11 23  1  0
 14 24  1  0
 15 25  1  0
 16 26  1  0
 17 27  1  0
 18 28  1  0
M  ISO  8  19  14  20  14  21  14  22  14  23  14  24  14  25  14  26  14
M  ISO  2  27  14  28  14
M  END
>  <minimizedAffinity>  (1) 
-4.60547495

>  <minimizedRMSD>  (1) 
3.06712556

$$$$
