
     RDKit          3D

 31 32  0  0  1  0  0  0  0  0999 V2000
   47.1450   33.5990   44.1410 C   0  0  0  0  0  0  0  0  0  0  0  0
   44.7440   36.2110   43.4340 C   0  0  1  0  0  0  0  0  0  0  0  0
   45.9350   35.3990   42.8930 C   0  0  0  0  0  0  0  0  0  0  0  0
   45.7850   34.1430   43.6830 C   0  0  2  0  0  0  0  0  0  0  0  0
   44.9430   34.3530   44.7300 O   0  0  0  0  0  0  0  0  0  0  0  0
   44.6800   35.6900   44.8400 C   0  0  0  0  0  0  0  0  0  0  0  0
   45.0480   37.5720   43.3740 O   0  0  0  0  0  0  0  0  0  0  0  0
   48.6800   32.1930   42.8370 C   0  0  0  0  0  0  0  0  0  0  0  0
   48.0240   33.3210   42.9890 C   0  0  0  0  0  0  0  0  0  0  0  0
   49.5280   32.0070   41.6630 C   0  0  0  0  0  0  0  0  0  0  0  0
   50.9140   31.8700   41.8980 C   0  0  0  0  0  0  0  0  0  0  0  0
   51.7700   31.6890   40.8040 C   0  0  0  0  0  0  0  0  0  0  0  0
   51.1930   31.6560   39.5620 N   0  0  0  0  0  0  0  0  0  0  0  0
   49.8720   31.7890   39.3780 C   0  0  0  0  0  0  0  0  0  0  0  0
   49.0640   31.9610   40.4270 N   0  0  0  0  0  0  0  0  0  0  0  0
   49.3490   31.7410   38.0210 C   0  0  0  0  0  0  0  0  0  0  0  0
   49.5050   32.7270   37.2520 O   0  0  0  0  0  0  0  0  0  0  0  0
   47.6290   34.3435   44.7902 H   0  0  0  0  0  0  0  0  0  0  0  0
   46.9781   32.6586   44.6866 H   0  0  0  0  0  0  0  0  0  0  0  0
   43.7931   36.1103   42.8903 H   0  0  0  0  0  0  0  0  0  0  0  0
   45.8433   35.2132   41.8127 H   0  0  0  0  0  0  0  0  0  0  0  0
   46.9125   35.8928   42.9961 H   0  0  0  0  0  0  0  0  0  0  0  0
   45.3432   33.3712   43.0356 H   0  0  0  0  0  0  0  0  0  0  0  0
   45.4349   36.1827   45.4704 H   0  0  0  0  0  0  0  0  0  0  0  0
   43.7046   35.8837   45.3103 H   0  0  0  0  0  0  0  0  0  0  0  0
   45.1286   37.9329   44.2923 H   0  0  0  0  0  0  0  0  0  0  0  0
   48.5911   31.3947   43.5885 H   0  0  0  0  0  0  0  0  0  0  0  0
   48.1357   34.0978   42.2182 H   0  0  0  0  0  0  0  0  0  0  0  0
   51.3142   31.9048   42.9220 H   0  0  0  0  0  0  0  0  0  0  0  0
   52.8564   31.5784   40.9363 H   0  0  0  0  0  0  0  0  0  0  0  0
   48.8181   30.8451   37.6669 H   0  0  0  0  0  0  0  0  0  0  0  0
  2  6  1  0
  3  2  1  0
  3  4  1  0
  4  1  1  0
  4  5  1  0
  5  6  1  0
  7  2  1  0
  8  9  2  0
  9  1  1  0
 10 11  2  0
 10  8  1  0
 12 11  1  0
 13 12  2  0
 14 13  1  0
 14 15  2  0
 15 10  1  0
 16 14  1  0
 17 16  2  0
  1 18  1  0
  1 19  1  0
  2 20  1  6
  3 21  1  0
  3 22  1  0
  4 23  1  6
  6 24  1  0
  6 25  1  0
  7 26  1  0
  8 27  1  0
  9 28  1  0
 11 29  1  0
 12 30  1  0
 16 31  1  0
M  ISO  8  18   8  19   8  20  13  21  13  22  13  23  13  24  13  25  13
M  ISO  4  26   3  29  14  30  14  31   6
M  END
>  <minimizedAffinity>  (1) 
-4.27233362

>  <minimizedRMSD>  (1) 
0.379534334

$$$$
