
     RDKit          3D

 26 28  0  0  0  0  0  0  0  0999 V2000
   45.5480   34.0040   44.8520 C   0  0  0  0  0  0  0  0  0  0  0  0
   45.1550   33.2200   43.7650 C   0  0  0  0  0  0  0  0  0  0  0  0
   45.4620   31.8640   43.7210 C   0  0  0  0  0  0  0  0  0  0  0  0
   46.1580   31.3580   44.7880 N   0  0  0  0  0  0  0  0  0  0  0  0
   46.5310   32.1260   45.8310 C   0  0  0  0  0  0  0  0  0  0  0  0
   46.2380   33.4400   45.8820 N   0  0  0  0  0  0  0  0  0  0  0  0
   47.2710   31.5490   46.9470 C   0  0  0  0  0  0  0  0  0  0  0  0
   47.5820   30.2180   46.9840 C   0  0  0  0  0  0  0  0  0  0  0  0
   48.2780   29.6230   48.0130 C   0  0  0  0  0  0  0  0  0  0  0  0
   48.6590   30.4470   49.0340 N   0  0  0  0  0  0  0  0  0  0  0  0
   48.3500   31.7530   48.9900 C   0  0  0  0  0  0  0  0  0  0  0  0
   47.6670   32.3560   47.9880 N   0  0  0  0  0  0  0  0  0  0  0  0
   44.4220   33.8950   42.7070 C   0  0  0  0  0  0  0  0  0  0  0  0
   44.4590   35.2500   42.4710 C   0  0  0  0  0  0  0  0  0  0  0  0
   43.7470   35.8570   41.4530 C   0  0  0  0  0  0  0  0  0  0  0  0
   43.0000   35.0810   40.6790 N   0  0  0  0  0  0  0  0  0  0  0  0
   42.9430   33.7510   40.8850 C   0  0  0  0  0  0  0  0  0  0  0  0
   43.6500   33.1620   41.8930 N   0  0  0  0  0  0  0  0  0  0  0  0
   45.3006   35.0755   44.8762 H   0  0  0  0  0  0  0  0  0  0  0  0
   45.1617   31.2303   42.8735 H   0  0  0  0  0  0  0  0  0  0  0  0
   47.2578   29.5862   46.1439 H   0  0  0  0  0  0  0  0  0  0  0  0
   48.5131   28.5484   48.0127 H   0  0  0  0  0  0  0  0  0  0  0  0
   48.6765   32.3810   49.8320 H   0  0  0  0  0  0  0  0  0  0  0  0
   45.0837   35.8792   43.1221 H   0  0  0  0  0  0  0  0  0  0  0  0
   43.7982   36.9438   41.2909 H   0  0  0  0  0  0  0  0  0  0  0  0
   42.3158   33.1289   40.2295 H   0  0  0  0  0  0  0  0  0  0  0  0
  1  6  2  0
  2  1  1  0
  3  2  2  0
  3  4  1  0
  4  5  2  0
  5  6  1  0
  5  7  1  0
  7  8  2  0
  7 12  1  0
  8  9  1  0
  9 10  2  0
 11 10  1  0
 12 11  2  0
 13  2  1  0
 14 13  2  0
 15 14  1  0
 16 17  1  0
 16 15  2  0
 17 18  2  0
 18 13  1  0
  1 19  1  0
  3 20  1  0
  8 21  1  0
  9 22  1  0
 11 23  1  0
 14 24  1  0
 15 25  1  0
 17 26  1  0
M  ISO  8  19  14  20  14  21  14  22  14  23  14  24  14  25  14  26  14
M  END
>  <minimizedAffinity>  (1) 
-4.3596487

>  <minimizedRMSD>  (1) 
2.72581458

$$$$
