
     RDKit          3D

 24 26  0  0  0  0  0  0  0  0999 V2000
   45.4810   34.0520   44.6970 C   0  0  0  0  0  0  0  0  0  0  0  0
   45.0970   33.2780   43.6000 C   0  0  0  0  0  0  0  0  0  0  0  0
   45.4050   31.9230   43.5810 C   0  0  0  0  0  0  0  0  0  0  0  0
   46.0810   31.3960   44.6500 N   0  0  0  0  0  0  0  0  0  0  0  0
   46.4350   32.1830   45.6950 C   0  0  0  0  0  0  0  0  0  0  0  0
   46.1420   33.5010   45.7260 N   0  0  0  0  0  0  0  0  0  0  0  0
   47.1530   31.5970   46.8200 C   0  0  0  0  0  0  0  0  0  0  0  0
   47.4580   30.2720   46.8810 C   0  0  0  0  0  0  0  0  0  0  0  0
   48.1300   29.6780   47.9170 C   0  0  0  0  0  0  0  0  0  0  0  0
   48.4960   30.5030   48.9270 N   0  0  0  0  0  0  0  0  0  0  0  0
   48.2020   31.8230   48.8840 C   0  0  0  0  0  0  0  0  0  0  0  0
   47.5330   32.4150   47.8530 N   0  0  0  0  0  0  0  0  0  0  0  0
   44.3790   33.9120   42.4990 C   0  0  0  0  0  0  0  0  0  0  0  0
   43.8370   33.1170   41.4450 C   0  0  0  0  0  0  0  0  0  0  0  0
   43.0370   34.3780   40.3140 S   0  0  0  0  0  0  0  0  0  0  0  0
   43.5900   35.7510   41.4870 C   0  0  0  0  0  0  0  0  0  0  0  0
   44.1350   35.1850   42.3080 N   0  0  0  0  0  0  0  0  0  0  0  0
   45.2389   35.1248   44.7175 H   0  0  0  0  0  0  0  0  0  0  0  0
   45.1137   31.2900   42.7299 H   0  0  0  0  0  0  0  0  0  0  0  0
   47.1437   29.6345   46.0415 H   0  0  0  0  0  0  0  0  0  0  0  0
   48.3573   28.6018   47.9277 H   0  0  0  0  0  0  0  0  0  0  0  0
   48.5201   32.4538   49.7272 H   0  0  0  0  0  0  0  0  0  0  0  0
   43.8790   32.0243   41.3253 H   0  0  0  0  0  0  0  0  0  0  0  0
   43.4248   36.8348   41.3973 H   0  0  0  0  0  0  0  0  0  0  0  0
  1  6  2  0
  2  1  1  0
  3  2  2  0
  3  4  1  0
  4  5  2  0
  5  6  1  0
  5  7  1  0
  7  8  2  0
  7 12  1  0
  8  9  1  0
  9 10  2  0
 11 10  1  0
 12 11  2  0
 13  2  1  0
 14 13  2  0
 15 14  1  0
 15 16  1  0
 16 17  2  0
 17 13  1  0
  1 18  1  0
  3 19  1  0
  8 20  1  0
  9 21  1  0
 11 22  1  0
 14 23  1  0
 16 24  1  0
M  ISO  7  18  14  19  14  20  14  21  14  22  14  23  14  24  14
M  END
>  <minimizedAffinity>  (1) 
-4.11294127

>  <minimizedRMSD>  (1) 
2.58149695

$$$$
