
     RDKit          3D

 30 32  0  0  0  0  0  0  0  0999 V2000
   47.6710   32.1000   48.1800 C   0  0  0  0  0  0  0  0  0  0  0  0
   47.4850   31.2480   47.0750 C   0  0  0  0  0  0  0  0  0  0  0  0
   48.2640   30.1160   46.9280 C   0  0  0  0  0  0  0  0  0  0  0  0
   49.2100   29.8670   47.8970 N   0  0  0  0  0  0  0  0  0  0  0  0
   49.3770   30.6900   48.9490 C   0  0  0  0  0  0  0  0  0  0  0  0
   48.6190   31.7790   49.0780 N   0  0  0  0  0  0  0  0  0  0  0  0
   50.3930   30.3910   49.9560 C   0  0  0  0  0  0  0  0  0  0  0  0
   51.6910   30.7670   49.8070 C   0  0  0  0  0  0  0  0  0  0  0  0
   52.6840   30.5150   50.7140 C   0  0  0  0  0  0  0  0  0  0  0  0
   52.3020   29.8450   51.8160 N   0  0  0  0  0  0  0  0  0  0  0  0
   51.0180   29.4680   51.9710 C   0  0  0  0  0  0  0  0  0  0  0  0
   50.0190   29.7110   51.0780 N   0  0  0  0  0  0  0  0  0  0  0  0
   46.4560   31.6060   46.1090 C   0  0  0  0  0  0  0  0  0  0  0  0
   45.6040   30.7060   45.8380 O   0  0  0  0  0  0  0  0  0  0  0  0
   47.9950   31.8650   43.5570 Cl  0  0  0  0  0  0  0  0  0  0  0  0
   46.8490   33.0410   44.1610 C   0  0  0  0  0  0  0  0  0  0  0  0
   46.1870   32.8200   45.3630 C   0  0  0  0  0  0  0  0  0  0  0  0
   45.2770   33.7370   45.8580 C   0  0  0  0  0  0  0  0  0  0  0  0
   44.9960   34.9020   45.1750 C   0  0  0  0  0  0  0  0  0  0  0  0
   45.6440   35.1460   43.9740 C   0  0  0  0  0  0  0  0  0  0  0  0
   46.5490   34.2280   43.4860 C   0  0  0  0  0  0  0  0  0  0  0  0
   47.0573   33.0042   48.3055 H   0  0  0  0  0  0  0  0  0  0  0  0
   48.1334   29.4401   46.0701 H   0  0  0  0  0  0  0  0  0  0  0  0
   51.9624   31.3131   48.8915 H   0  0  0  0  0  0  0  0  0  0  0  0
   53.7231   30.8381   50.5530 H   0  0  0  0  0  0  0  0  0  0  0  0
   50.7564   28.9220   52.8894 H   0  0  0  0  0  0  0  0  0  0  0  0
   44.7690   33.5336   46.8123 H   0  0  0  0  0  0  0  0  0  0  0  0
   44.2704   35.6248   45.5763 H   0  0  0  0  0  0  0  0  0  0  0  0
   45.4367   36.0689   43.4125 H   0  0  0  0  0  0  0  0  0  0  0  0
   47.0534   34.4369   42.5310 H   0  0  0  0  0  0  0  0  0  0  0  0
  1  6  2  0
  2  1  1  0
  3  2  2  0
  3  4  1  0
  4  5  2  0
  5  6  1  0
  5  7  1  0
  7 12  1  0
  8  7  2  0
  8  9  1  0
  9 10  2  0
 10 11  1  0
 12 11  2  0
 13  2  1  0
 14 13  2  0
 15 16  1  0
 16 17  2  0
 17 18  1  0
 17 13  1  0
 19 18  2  0
 20 19  1  0
 21 20  2  0
 21 16  1  0
  1 22  1  0
  3 23  1  0
  8 24  1  0
  9 25  1  0
 11 26  1  0
 18 27  1  0
 19 28  1  0
 20 29  1  0
 21 30  1  0
M  ISO  8  22  14  23  14  24  14  25  14  26  14  27  14  28  14  29  14
M  ISO  1  30  14
M  END
>  <minimizedAffinity>  (1) 
-4.71813726

>  <minimizedRMSD>  (1) 
5.93800116

$$$$
