
     RDKit          3D

 30 31  0  0  1  0  0  0  0  0999 V2000
   47.1290   33.6120   44.1170 C   0  0  0  0  0  0  0  0  0  0  0  0
   44.7380   36.2360   43.4400 C   0  0  1  0  0  0  0  0  0  0  0  0
   45.9050   35.4190   42.8730 C   0  0  0  0  0  0  0  0  0  0  0  0
   45.7780   34.1680   43.6530 C   0  0  2  0  0  0  0  0  0  0  0  0
   44.9320   34.3700   44.7130 O   0  0  0  0  0  0  0  0  0  0  0  0
   44.7040   35.7200   44.8560 C   0  0  0  0  0  0  0  0  0  0  0  0
   45.0270   37.5950   43.3900 O   0  0  0  0  0  0  0  0  0  0  0  0
   48.6820   32.2050   42.8460 C   0  0  0  0  0  0  0  0  0  0  0  0
   48.0060   33.3200   42.9760 C   0  0  0  0  0  0  0  0  0  0  0  0
   49.5320   32.0090   41.6670 C   0  0  0  0  0  0  0  0  0  0  0  0
   50.9150   31.8840   41.8910 C   0  0  0  0  0  0  0  0  0  0  0  0
   51.7650   31.6950   40.7950 C   0  0  0  0  0  0  0  0  0  0  0  0
   51.1920   31.6430   39.5500 N   0  0  0  0  0  0  0  0  0  0  0  0
   49.8680   31.7680   39.3820 C   0  0  0  0  0  0  0  0  0  0  0  0
   49.0570   31.9470   40.4250 N   0  0  0  0  0  0  0  0  0  0  0  0
   49.3990   31.6990   38.0720 O   0  0  0  0  0  0  0  0  0  0  0  0
   47.6186   34.3543   44.7645 H   0  0  0  0  0  0  0  0  0  0  0  0
   46.9492   32.6755   44.6653 H   0  0  0  0  0  0  0  0  0  0  0  0
   43.7840   36.1328   42.9022 H   0  0  0  0  0  0  0  0  0  0  0  0
   45.7847   35.2370   41.7949 H   0  0  0  0  0  0  0  0  0  0  0  0
   46.8860   35.9094   42.9583 H   0  0  0  0  0  0  0  0  0  0  0  0
   45.3527   33.4029   42.9868 H   0  0  0  0  0  0  0  0  0  0  0  0
   45.4913   36.1892   45.4642 H   0  0  0  0  0  0  0  0  0  0  0  0
   43.7570   35.9419   45.3697 H   0  0  0  0  0  0  0  0  0  0  0  0
   45.1026   37.9504   44.3109 H   0  0  0  0  0  0  0  0  0  0  0  0
   48.6125   31.4219   43.6154 H   0  0  0  0  0  0  0  0  0  0  0  0
   48.1008   34.0798   42.1862 H   0  0  0  0  0  0  0  0  0  0  0  0
   51.3223   31.9340   42.9116 H   0  0  0  0  0  0  0  0  0  0  0  0
   52.8521   31.5920   40.9273 H   0  0  0  0  0  0  0  0  0  0  0  0
   48.4301   31.7849   37.8880 H   0  0  0  0  0  0  0  0  0  0  0  0
  2  6  1  0
  3  2  1  0
  3  4  1  0
  4  1  1  0
  4  5  1  0
  5  6  1  0
  7  2  1  0
  8  9  2  0
  9  1  1  0
 10 11  2  0
 10  8  1  0
 12 11  1  0
 13 12  2  0
 14 13  1  0
 14 15  2  0
 15 10  1  0
 16 14  1  0
  1 17  1  0
  1 18  1  0
  2 19  1  6
  3 20  1  0
  3 21  1  0
  4 22  1  6
  6 23  1  0
  6 24  1  0
  7 25  1  0
  8 26  1  0
  9 27  1  0
 11 28  1  0
 12 29  1  0
 16 30  1  0
M  ISO  8  17   8  18   8  19  13  20  13  21  13  22  13  23  13  24  13
M  ISO  4  25   3  28  14  29  14  30   3
M  END
>  <minimizedAffinity>  (1) 
-4.26819038

>  <minimizedRMSD>  (1) 
0.0775450245

$$$$
