
     RDKit          3D

 27 28  0  0  0  0  0  0  0  0999 V2000
   44.9080   35.0230   44.5000 C   0  0  0  0  0  0  0  0  0  0  0  0
   44.9920   34.2970   43.3240 C   0  0  0  0  0  0  0  0  0  0  0  0
   45.4350   32.9620   43.3420 C   0  0  0  0  0  0  0  0  0  0  0  0
   45.7740   32.4290   44.5620 N   0  0  0  0  0  0  0  0  0  0  0  0
   45.6850   33.1490   45.6840 C   0  0  0  0  0  0  0  0  0  0  0  0
   45.2570   34.4320   45.6530 N   0  0  0  0  0  0  0  0  0  0  0  0
   46.0490   32.5620   46.9630 C   0  0  0  0  0  0  0  0  0  0  0  0
   47.3280   32.2450   47.2890 C   0  0  0  0  0  0  0  0  0  0  0  0
   47.6930   31.6910   48.4890 C   0  0  0  0  0  0  0  0  0  0  0  0
   46.6940   31.4580   49.3760 N   0  0  0  0  0  0  0  0  0  0  0  0
   45.4440   31.7670   49.0550 C   0  0  0  0  0  0  0  0  0  0  0  0
   45.0600   32.3120   47.8860 N   0  0  0  0  0  0  0  0  0  0  0  0
   44.6140   34.9400   42.0830 C   0  0  0  0  0  0  0  0  0  0  0  0
   45.3240   34.6960   41.0730 O   0  0  0  0  0  0  0  0  0  0  0  0
   43.6020   35.8070   41.7310 O   0  0  0  0  0  0  0  0  0  0  0  0
   42.5420   35.3600   40.9340 C   0  0  0  0  0  0  0  0  0  0  0  0
   41.2140   35.4080   41.6540 C   0  0  0  0  0  0  0  0  0  0  0  0
   44.5610   36.0668   44.4893 H   0  0  0  0  0  0  0  0  0  0  0  0
   45.5070   32.3696   42.4179 H   0  0  0  0  0  0  0  0  0  0  0  0
   48.1166   32.4439   46.5483 H   0  0  0  0  0  0  0  0  0  0  0  0
   48.7408   31.4484   48.7200 H   0  0  0  0  0  0  0  0  0  0  0  0
   44.6622   31.5621   49.8012 H   0  0  0  0  0  0  0  0  0  0  0  0
   42.7418   34.3213   40.6319 H   0  0  0  0  0  0  0  0  0  0  0  0
   42.4739   36.0293   40.0637 H   0  0  0  0  0  0  0  0  0  0  0  0
   41.3856   35.4018   42.7405 H   0  0  0  0  0  0  0  0  0  0  0  0
   40.6774   36.3261   41.3728 H   0  0  0  0  0  0  0  0  0  0  0  0
   40.6125   34.5310   41.3728 H   0  0  0  0  0  0  0  0  0  0  0  0
  1  6  2  0
  2  3  2  0
  2  1  1  0
  3  4  1  0
  4  5  2  0
  5  7  1  0
  6  5  1  0
  7  8  2  0
  7 12  1  0
  8  9  1  0
  9 10  2  0
 11 10  1  0
 12 11  2  0
 13  2  1  0
 14 13  2  0
 15 13  1  0
 16 17  1  0
 16 15  1  0
  1 18  1  0
  3 19  1  0
  8 20  1  0
  9 21  1  0
 11 22  1  0
 16 23  1  0
 16 24  1  0
 17 25  1  0
 17 26  1  0
 17 27  1  0
M  ISO  8  18  14  19  14  20  14  21  14  22  14  23   8  24   8  25   8
M  ISO  2  26   8  27   8
M  END
>  <minimizedAffinity>  (1) 
-4.52249718

>  <minimizedRMSD>  (1) 
1.62920535

$$$$
