
     RDKit          3D

 22 22  0  0  0  0  0  0  0  0999 V2000
   46.4530   34.6550   43.2600 C   0  0  0  0  0  0  0  0  0  0  0  0
   46.2010   33.9710   44.4350 C   0  0  0  0  0  0  0  0  0  0  0  0
   45.1710   34.5110   45.2690 C   0  0  0  0  0  0  0  0  0  0  0  0
   44.5310   35.6290   44.8610 N   0  0  0  0  0  0  0  0  0  0  0  0
   44.8120   36.2590   43.7110 C   0  0  0  0  0  0  0  0  0  0  0  0
   45.7620   35.7710   42.9290 N   0  0  0  0  0  0  0  0  0  0  0  0
   47.4860   34.1370   42.3770 C   0  0  0  0  0  0  0  0  0  0  0  0
   48.2300   35.2950   41.7210 C   0  0  0  0  0  0  0  0  0  0  0  0
   46.8730   32.7850   45.0030 C   0  0  0  0  0  0  0  0  0  0  0  0
   46.6890   32.7130   46.5250 C   0  0  0  0  0  0  0  0  0  0  0  0
   44.9063   34.0269   46.2206 H   0  0  0  0  0  0  0  0  0  0  0  0
   44.2619   37.1667   43.4222 H   0  0  0  0  0  0  0  0  0  0  0  0
   48.1948   33.5305   42.9599 H   0  0  0  0  0  0  0  0  0  0  0  0
   47.0209   33.5151   41.5980 H   0  0  0  0  0  0  0  0  0  0  0  0
   48.6501   35.9489   42.4994 H   0  0  0  0  0  0  0  0  0  0  0  0
   49.0440   34.9003   41.0951 H   0  0  0  0  0  0  0  0  0  0  0  0
   47.5327   35.8713   41.0951 H   0  0  0  0  0  0  0  0  0  0  0  0
   46.4461   31.8793   44.5476 H   0  0  0  0  0  0  0  0  0  0  0  0
   47.9490   32.8601   44.7873 H   0  0  0  0  0  0  0  0  0  0  0  0
   47.6028   33.0706   47.0221 H   0  0  0  0  0  0  0  0  0  0  0  0
   45.8389   33.3448   46.8219 H   0  0  0  0  0  0  0  0  0  0  0  0
   46.4935   31.6720   46.8219 H   0  0  0  0  0  0  0  0  0  0  0  0
  1  2  2  0
  2  9  1  0
  2  3  1  0
  4  3  2  0
  5  4  1  0
  6  1  1  0
  6  5  2  0
  7  1  1  0
  8  7  1  0
  9 10  1  0
  3 11  1  0
  5 12  1  0
  7 13  1  0
  7 14  1  0
  8 15  1  0
  8 16  1  0
  8 17  1  0
  9 18  1  0
  9 19  1  0
 10 20  1  0
 10 21  1  0
 10 22  1  0
M  ISO  8  11  14  12  14  13   8  14   8  15   8  16   8  17   8  18   8
M  ISO  4  19   8  20   8  21   8  22   8
M  END
>  <minimizedAffinity>  (1) 
-3.63138962

>  <minimizedRMSD>  (1) 
3.22954512

$$$$
