
     RDKit          3D

 23 24  0  0  0  0  0  0  0  0999 V2000
   45.4180   33.1330   43.8990 C   0  0  0  0  0  0  0  0  0  0  0  0
   44.7950   34.2300   43.3460 C   0  0  0  0  0  0  0  0  0  0  0  0
   44.4750   35.2890   44.2390 C   0  0  0  0  0  0  0  0  0  0  0  0
   44.7820   35.1770   45.5640 N   0  0  0  0  0  0  0  0  0  0  0  0
   45.3860   34.0800   46.0380 C   0  0  0  0  0  0  0  0  0  0  0  0
   45.6970   33.0810   45.2210 N   0  0  0  0  0  0  0  0  0  0  0  0
   44.3970   34.4730   41.9820 C   0  0  0  0  0  0  0  0  0  0  0  0
   44.8580   34.1880   40.7250 C   0  0  0  0  0  0  0  0  0  0  0  0
   44.0740   34.5950   39.7420 N   0  0  0  0  0  0  0  0  0  0  0  0
   43.0360   35.1810   40.3540 C   0  0  0  0  0  0  0  0  0  0  0  0
   43.2500   35.0950   41.6690 N   0  0  0  0  0  0  0  0  0  0  0  0
   45.8210   32.0270   43.0430 C   0  0  0  0  0  0  0  0  0  0  0  0
   44.7870   30.9050   43.1550 C   0  0  0  0  0  0  0  0  0  0  0  0
   43.9809   36.1969   43.8626 H   0  0  0  0  0  0  0  0  0  0  0  0
   45.6255   34.0063   47.1091 H   0  0  0  0  0  0  0  0  0  0  0  0
   45.8071   33.6612   40.5469 H   0  0  0  0  0  0  0  0  0  0  0  0
   44.2271   34.4859   38.7293 H   0  0  0  0  0  0  0  0  0  0  0  0
   42.1683   35.6466   39.8638 H   0  0  0  0  0  0  0  0  0  0  0  0
   46.8054   31.6540   43.3621 H   0  0  0  0  0  0  0  0  0  0  0  0
   45.8844   32.3698   41.9997 H   0  0  0  0  0  0  0  0  0  0  0  0
   44.5906   30.6919   44.2162 H   0  0  0  0  0  0  0  0  0  0  0  0
   43.8530   31.2168   42.6647 H   0  0  0  0  0  0  0  0  0  0  0  0
   45.1739   29.9995   42.6647 H   0  0  0  0  0  0  0  0  0  0  0  0
  1  6  2  0
  2  1  1  0
  2  3  2  0
  3  4  1  0
  4  5  2  0
  6  5  1  0
  7  2  1  0
  8  7  2  0
  9 10  1  0
  9  8  1  0
 10 11  2  0
 11  7  1  0
 12 13  1  0
 12  1  1  0
  3 14  1  0
  5 15  1  0
  8 16  1  0
  9 17  1  0
 10 18  1  0
 12 19  1  0
 12 20  1  0
 13 21  1  0
 13 22  1  0
 13 23  1  0
M  ISO  8  14  14  15  14  16  14  17   9  18  14  19   8  20   8  21   8
M  ISO  2  22   8  23   8
M  END
>  <minimizedAffinity>  (1) 
-3.45340037

>  <minimizedRMSD>  (1) 
3.36700702

$$$$
