
     RDKit          3D

 23 24  0  0  0  0  0  0  0  0999 V2000
   46.0590   30.9960   45.4470 C   0  0  0  0  0  0  0  0  0  0  0  0
   46.5170   32.2910   45.5570 C   0  0  0  0  0  0  0  0  0  0  0  0
   46.7810   32.7760   46.8710 C   0  0  0  0  0  0  0  0  0  0  0  0
   46.5660   31.9490   47.9220 N   0  0  0  0  0  0  0  0  0  0  0  0
   46.1180   30.6980   47.7560 C   0  0  0  0  0  0  0  0  0  0  0  0
   45.8680   30.2260   46.5470 N   0  0  0  0  0  0  0  0  0  0  0  0
   46.6740   33.2480   44.5220 C   0  0  0  0  0  0  0  0  0  0  0  0
   47.6360   33.5870   43.5330 C   0  0  0  0  0  0  0  0  0  0  0  0
   47.3460   34.5780   42.6760 C   0  0  0  0  0  0  0  0  0  0  0  0
   46.1610   35.2900   42.6990 C   0  0  0  0  0  0  0  0  0  0  0  0
   45.3160   34.4380   44.1520 S   0  0  0  0  0  0  0  0  0  0  0  0
   45.8130   30.3990   44.1350 C   0  0  0  0  0  0  0  0  0  0  0  0
   47.0290   29.6390   43.6800 C   0  0  0  0  0  0  0  0  0  0  0  0
   47.1513   33.7998   47.0282 H   0  0  0  0  0  0  0  0  0  0  0  0
   45.9564   30.0566   48.6349 H   0  0  0  0  0  0  0  0  0  0  0  0
   48.5944   33.0506   43.4713 H   0  0  0  0  0  0  0  0  0  0  0  0
   48.0933   34.8386   41.9120 H   0  0  0  0  0  0  0  0  0  0  0  0
   45.8133   36.1128   42.0571 H   0  0  0  0  0  0  0  0  0  0  0  0
   44.9574   29.7110   44.2024 H   0  0  0  0  0  0  0  0  0  0  0  0
   45.5935   31.1969   43.4103 H   0  0  0  0  0  0  0  0  0  0  0  0
   47.5914   29.2875   44.5576 H   0  0  0  0  0  0  0  0  0  0  0  0
   46.7164   28.7753   43.0748 H   0  0  0  0  0  0  0  0  0  0  0  0
   47.6684   30.2985   43.0748 H   0  0  0  0  0  0  0  0  0  0  0  0
  1  2  2  0
  1  6  1  0
  2  3  1  0
  3  4  2  0
  5  4  1  0
  6  5  2  0
  7  2  1  0
  8  7  2  0
  9 10  2  0
  9  8  1  0
 10 11  1  0
 11  7  1  0
 12  1  1  0
 13 12  1  0
  3 14  1  0
  5 15  1  0
  8 16  1  0
  9 17  1  0
 10 18  1  0
 12 19  1  0
 12 20  1  0
 13 21  1  0
 13 22  1  0
 13 23  1  0
M  ISO  8  14  14  15  14  16  14  17  14  18  14  19   8  20   8  21   8
M  ISO  2  22   8  23   8
M  END
>  <minimizedAffinity>  (1) 
-3.22658896

>  <minimizedRMSD>  (1) 
4.55280447

$$$$
