
     RDKit          3D

 17 17  0  0  0  0  0  0  0  0999 V2000
   47.5600   34.1020   42.4290 C   0  0  0  0  0  0  0  0  0  0  0  0
   46.8330   34.1980   41.2490 C   0  0  0  0  0  0  0  0  0  0  0  0
   45.4640   34.5030   41.3210 C   0  0  0  0  0  0  0  0  0  0  0  0
   44.9390   34.6880   42.5500 N   0  0  0  0  0  0  0  0  0  0  0  0
   45.6590   34.5920   43.6780 C   0  0  0  0  0  0  0  0  0  0  0  0
   46.9560   34.3010   43.6020 N   0  0  0  0  0  0  0  0  0  0  0  0
   48.9860   33.7790   42.4380 C   0  0  0  0  0  0  0  0  0  0  0  0
   49.7810   35.0510   42.5360 C   0  0  0  0  0  0  0  0  0  0  0  0
   47.6190   33.9350   39.6680 S   0  0  0  0  0  0  0  0  0  0  0  0
   44.8465   34.5874   40.4146 H   0  0  0  0  0  0  0  0  0  0  0  0
   45.1823   34.7522   44.6563 H   0  0  0  0  0  0  0  0  0  0  0  0
   49.2121   33.1365   43.3017 H   0  0  0  0  0  0  0  0  0  0  0  0
   49.2504   33.2488   41.5112 H   0  0  0  0  0  0  0  0  0  0  0  0
   49.9391   35.3039   43.5948 H   0  0  0  0  0  0  0  0  0  0  0  0
   50.7545   34.9139   42.0425 H   0  0  0  0  0  0  0  0  0  0  0  0
   49.2312   35.8660   42.0425 H   0  0  0  0  0  0  0  0  0  0  0  0
   48.9049   33.5047   39.8633 H   0  0  0  0  0  0  0  0  0  0  0  0
  1  7  1  0
  1  6  2  0
  2  3  2  0
  2  1  1  0
  3  4  1  0
  4  5  2  0
  6  5  1  0
  7  8  1  0
  9  2  1  0
  3 10  1  0
  5 11  1  0
  7 12  1  0
  7 13  1  0
  8 14  1  0
  8 15  1  0
  8 16  1  0
  9 17  1  0
M  ISO  8  10  14  11  14  12   8  13   8  14   8  15   8  16   8  17  11
M  END
>  <minimizedAffinity>  (1) 
-2.82464647

>  <minimizedRMSD>  (1) 
1.47617793

$$$$
