
     RDKit          3D

 17 17  0  0  0  0  0  0  0  0999 V2000
   47.2190   33.8070   43.2840 C   0  0  0  0  0  0  0  0  0  0  0  0
   46.3830   34.6200   42.5290 C   0  0  0  0  0  0  0  0  0  0  0  0
   45.2280   35.1380   43.1540 C   0  0  0  0  0  0  0  0  0  0  0  0
   45.0040   34.8100   44.4580 N   0  0  0  0  0  0  0  0  0  0  0  0
   45.8470   34.0180   45.1410 C   0  0  0  0  0  0  0  0  0  0  0  0
   46.9410   33.5200   44.5700 N   0  0  0  0  0  0  0  0  0  0  0  0
   48.4300   33.2400   42.6920 C   0  0  0  0  0  0  0  0  0  0  0  0
   49.5380   34.2500   42.7630 C   0  0  0  0  0  0  0  0  0  0  0  0
   46.7260   34.8790   41.2030 O   0  0  0  0  0  0  0  0  0  0  0  0
   44.5297   35.7869   42.6051 H   0  0  0  0  0  0  0  0  0  0  0  0
   45.6290   33.7766   46.1918 H   0  0  0  0  0  0  0  0  0  0  0  0
   48.2375   32.9793   41.6408 H   0  0  0  0  0  0  0  0  0  0  0  0
   48.7211   32.3349   43.2453 H   0  0  0  0  0  0  0  0  0  0  0  0
   49.7724   34.4637   43.8163 H   0  0  0  0  0  0  0  0  0  0  0  0
   50.4319   33.8495   42.2624 H   0  0  0  0  0  0  0  0  0  0  0  0
   49.2218   35.1770   42.2624 H   0  0  0  0  0  0  0  0  0  0  0  0
   47.5501   34.4869   40.8192 H   0  0  0  0  0  0  0  0  0  0  0  0
  1  6  2  0
  2  3  2  0
  2  1  1  0
  3  4  1  0
  4  5  2  0
  6  5  1  0
  7  8  1  0
  7  1  1  0
  9  2  1  0
  3 10  1  0
  5 11  1  0
  7 12  1  0
  7 13  1  0
  8 14  1  0
  8 15  1  0
  8 16  1  0
  9 17  1  0
M  ISO  8  10  14  11  14  12   8  13   8  14   8  15   8  16   8  17   3
M  END
>  <minimizedAffinity>  (1) 
-2.75760198

>  <minimizedRMSD>  (1) 
0.542796075

$$$$
