
     RDKit          3D

 28 29  0  0  0  0  0  0  0  0999 V2000
   47.1300   33.4320   43.5490 C   0  0  0  0  0  0  0  0  0  0  0  0
   47.8360   32.2600   43.3400 C   0  0  0  0  0  0  0  0  0  0  0  0
   49.0790   32.2910   42.6630 C   0  0  0  0  0  0  0  0  0  0  0  0
   49.4950   33.5310   42.2540 N   0  0  0  0  0  0  0  0  0  0  0  0
   48.7840   34.6470   42.4720 C   0  0  0  0  0  0  0  0  0  0  0  0
   47.6130   34.6020   43.1140 N   0  0  0  0  0  0  0  0  0  0  0  0
   47.4610   30.9650   43.7180 N   0  0  0  0  0  0  0  0  0  0  0  0
   48.0960   30.1950   44.8000 C   0  0  0  0  0  0  0  0  0  0  0  0
   46.8930   29.9970   45.7220 C   0  0  0  0  0  0  0  0  0  0  0  0
   45.8300   29.6460   44.6860 C   0  0  0  0  0  0  0  0  0  0  0  0
   46.4780   29.9330   43.3450 C   0  0  0  0  0  0  0  0  0  0  0  0
   45.8530   33.3760   44.2520 C   0  0  0  0  0  0  0  0  0  0  0  0
   46.0930   33.5910   45.7450 C   0  0  0  0  0  0  0  0  0  0  0  0
   49.6703   31.3821   42.4780 H   0  0  0  0  0  0  0  0  0  0  0  0
   49.1705   35.6137   42.1170 H   0  0  0  0  0  0  0  0  0  0  0  0
   48.4963   29.2362   44.4388 H   0  0  0  0  0  0  0  0  0  0  0  0
   48.9648   30.6811   45.2679 H   0  0  0  0  0  0  0  0  0  0  0  0
   47.0553   29.1764   46.4364 H   0  0  0  0  0  0  0  0  0  0  0  0
   46.6517   30.8565   46.3647 H   0  0  0  0  0  0  0  0  0  0  0  0
   45.5522   28.5844   44.7617 H   0  0  0  0  0  0  0  0  0  0  0  0
   44.9058   30.2248   44.8303 H   0  0  0  0  0  0  0  0  0  0  0  0
   45.7471   30.3164   42.6178 H   0  0  0  0  0  0  0  0  0  0  0  0
   46.9141   29.0496   42.8557 H   0  0  0  0  0  0  0  0  0  0  0  0
   45.1872   34.1634   43.8691 H   0  0  0  0  0  0  0  0  0  0  0  0
   45.3843   32.3941   44.0902 H   0  0  0  0  0  0  0  0  0  0  0  0
   45.3955   32.9662   46.3222 H   0  0  0  0  0  0  0  0  0  0  0  0
   47.1274   33.3119   45.9940 H   0  0  0  0  0  0  0  0  0  0  0  0
   45.9289   34.6498   45.9940 H   0  0  0  0  0  0  0  0  0  0  0  0
  1 12  1  0
  2  1  2  0
  2  7  1  0
  3  2  1  0
  4  5  1  0
  4  3  2  0
  5  6  2  0
  6  1  1  0
  7  8  1  0
  8  9  1  0
 10  9  1  0
 11  7  1  0
 11 10  1  0
 12 13  1  0
  3 14  1  0
  5 15  1  0
  8 16  1  0
  8 17  1  0
  9 18  1  0
  9 19  1  0
 10 20  1  0
 10 21  1  0
 11 22  1  0
 11 23  1  0
 12 24  1  0
 12 25  1  0
 13 26  1  0
 13 27  1  0
 13 28  1  0
M  ISO  8  14  14  15  14  16  13  17  13  18  13  19  13  20  13  21  13
M  ISO  7  22  13  23  13  24   8  25   8  26   8  27   8  28   8
M  END
>  <minimizedAffinity>  (1) 
-2.52995563

>  <minimizedRMSD>  (1) 
5.44557762

$$$$
