
     RDKit          3D

 29 30  0  0  0  0  0  0  0  0999 V2000
   46.4140   34.3100   42.4860 C   0  0  0  0  0  0  0  0  0  0  0  0
   45.1730   34.6790   42.9670 C   0  0  0  0  0  0  0  0  0  0  0  0
   44.9150   34.4430   44.3290 C   0  0  0  0  0  0  0  0  0  0  0  0
   45.8850   33.8770   45.0680 N   0  0  0  0  0  0  0  0  0  0  0  0
   47.0830   33.5300   44.5700 C   0  0  0  0  0  0  0  0  0  0  0  0
   47.3390   33.7500   43.2780 N   0  0  0  0  0  0  0  0  0  0  0  0
   46.7650   34.5210   41.0790 C   0  0  0  0  0  0  0  0  0  0  0  0
   48.2080   34.9600   40.9860 C   0  0  0  0  0  0  0  0  0  0  0  0
   44.2900   35.2480   42.0690 O   0  0  0  0  0  0  0  0  0  0  0  0
   43.4060   34.3500   39.7610 O   0  0  0  0  0  0  0  0  0  0  0  0
   43.0450   34.4750   41.2390 P   0  0  1  0  0  0  0  0  0  0  0  0
   42.9100   32.8910   41.8700 O   0  0  0  0  0  0  0  0  0  0  0  0
   41.5450   35.2340   41.4260 O   0  0  0  0  0  0  0  0  0  0  0  0
   40.3810   34.5050   41.2240 C   0  0  0  0  0  0  0  0  0  0  0  0
   39.6660   34.9660   40.1130 C   0  0  0  0  0  0  0  0  0  0  0  0
   38.5160   34.1910   39.9740 C   0  0  0  0  0  0  0  0  0  0  0  0
   38.5840   33.2970   41.0010 N   0  0  0  0  0  0  0  0  0  0  0  0
   39.6760   33.4910   41.7240 N   0  0  0  0  0  0  0  0  0  0  0  0
   43.9474   34.7137   44.7769 H   0  0  0  0  0  0  0  0  0  0  0  0
   47.8437   33.0704   45.2181 H   0  0  0  0  0  0  0  0  0  0  0  0
   46.6296   33.5825   40.5215 H   0  0  0  0  0  0  0  0  0  0  0  0
   46.1147   35.2969   40.6488 H   0  0  0  0  0  0  0  0  0  0  0  0
   48.6192   35.0851   41.9986 H   0  0  0  0  0  0  0  0  0  0  0  0
   48.7890   34.1980   40.4459 H   0  0  0  0  0  0  0  0  0  0  0  0
   48.2662   35.9165   40.4459 H   0  0  0  0  0  0  0  0  0  0  0  0
   42.9132   32.9285   42.8593 H   0  0  0  0  0  0  0  0  0  0  0  0
   39.9618   35.7998   39.4593 H   0  0  0  0  0  0  0  0  0  0  0  0
   37.7310   34.2804   39.2087 H   0  0  0  0  0  0  0  0  0  0  0  0
   37.8805   32.5686   41.1891 H   0  0  0  0  0  0  0  0  0  0  0  0
  1  2  2  0
  1  6  1  0
  2  3  1  0
  3  4  2  0
  5  4  1  0
  6  5  2  0
  7  1  1  0
  8  7  1  0
  9  2  1  0
 11 10  2  0
 11 13  1  0
 11 12  1  0
 11  9  1  0
 14 13  1  0
 14 18  2  0
 15 14  1  0
 16 15  2  0
 16 17  1  0
 17 18  1  0
  3 19  1  0
  5 20  1  0
  7 21  1  0
  7 22  1  0
  8 23  1  0
  8 24  1  0
  8 25  1  0
 12 26  1  0
 15 27  1  0
 16 28  1  0
 17 29  1  0
M  ISO  8  19  14  20  14  21   8  22   8  23   8  24   8  25   8  26   3
M  ISO  3  27  14  28  14  29   9
M  END
>  <minimizedAffinity>  (1) 
-4.91108322

>  <minimizedRMSD>  (1) 
1.63845217

$$$$
