
     RDKit          3D

 28 28  0  0  0  0  0  0  0  0999 V2000
   45.7520   34.5980   42.7500 C   0  0  0  0  0  0  0  0  0  0  0  0
   44.6010   35.3380   42.9730 C   0  0  0  0  0  0  0  0  0  0  0  0
   44.1950   35.5130   44.3090 C   0  0  0  0  0  0  0  0  0  0  0  0
   44.9390   34.9580   45.2790 N   0  0  0  0  0  0  0  0  0  0  0  0
   46.0560   34.2410   45.0390 C   0  0  0  0  0  0  0  0  0  0  0  0
   46.4510   34.0680   43.7690 N   0  0  0  0  0  0  0  0  0  0  0  0
   46.2360   34.3710   41.3910 C   0  0  0  0  0  0  0  0  0  0  0  0
   47.6800   34.7780   41.3000 C   0  0  0  0  0  0  0  0  0  0  0  0
   43.9590   35.8360   41.8540 O   0  0  0  0  0  0  0  0  0  0  0  0
   42.8690   35.0420   39.6110 O   0  0  0  0  0  0  0  0  0  0  0  0
   42.5930   35.1780   41.1010 P   0  0  1  0  0  0  0  0  0  0  0  0
   42.3480   33.6320   41.7460 O   0  0  0  0  0  0  0  0  0  0  0  0
   41.1900   36.0830   41.3580 O   0  0  0  0  0  0  0  0  0  0  0  0
   40.4540   36.0430   40.1790 C   0  0  0  0  0  0  0  0  0  0  0  0
   39.4300   34.9330   40.1690 C   0  0  0  0  0  0  0  0  0  0  0  0
   43.2907   36.0901   44.5525 H   0  0  0  0  0  0  0  0  0  0  0  0
   46.6321   33.8064   45.8692 H   0  0  0  0  0  0  0  0  0  0  0  0
   46.1390   33.3043   41.1404 H   0  0  0  0  0  0  0  0  0  0  0  0
   45.6409   34.9686   40.6848 H   0  0  0  0  0  0  0  0  0  0  0  0
   48.0927   34.8943   42.3130 H   0  0  0  0  0  0  0  0  0  0  0  0
   48.2457   34.0043   40.7602 H   0  0  0  0  0  0  0  0  0  0  0  0
   47.7584   35.7332   40.7602 H   0  0  0  0  0  0  0  0  0  0  0  0
   42.3559   33.6819   42.7347 H   0  0  0  0  0  0  0  0  0  0  0  0
   39.9327   37.0039   40.0567 H   0  0  0  0  0  0  0  0  0  0  0  0
   41.1571   35.8540   39.3544 H   0  0  0  0  0  0  0  0  0  0  0  0
   39.1767   34.6585   41.2036 H   0  0  0  0  0  0  0  0  0  0  0  0
   38.5236   35.2750   39.6480 H   0  0  0  0  0  0  0  0  0  0  0  0
   39.8439   34.0570   39.6480 H   0  0  0  0  0  0  0  0  0  0  0  0
  1  2  2  0
  1  6  1  0
  2  3  1  0
  3  4  2  0
  5  4  1  0
  6  5  2  0
  7  1  1  0
  8  7  1  0
  9  2  1  0
 11 10  2  0
 11 13  1  0
 11 12  1  0
 11  9  1  0
 14 13  1  0
 15 14  1  0
  3 16  1  0
  5 17  1  0
  7 18  1  0
  7 19  1  0
  8 20  1  0
  8 21  1  0
  8 22  1  0
 12 23  1  0
 14 24  1  0
 14 25  1  0
 15 26  1  0
 15 27  1  0
 15 28  1  0
M  ISO  8  16  14  17  14  18   8  19   8  20   8  21   8  22   8  23   3
M  ISO  5  24   8  25   8  26   8  27   8  28   8
M  END
>  <minimizedAffinity>  (1) 
-4.15272093

>  <minimizedRMSD>  (1) 
1.4884398

$$$$
