
     RDKit          3D

 24 24  0  0  0  0  0  0  0  0999 V2000
   46.4010   34.1530   41.9160 C   0  0  0  0  0  0  0  0  0  0  0  0
   45.2230   34.6760   42.4020 C   0  0  0  0  0  0  0  0  0  0  0  0
   45.0180   34.6360   43.7950 C   0  0  0  0  0  0  0  0  0  0  0  0
   45.9850   34.0900   44.5590 N   0  0  0  0  0  0  0  0  0  0  0  0
   47.1210   33.5880   44.0570 C   0  0  0  0  0  0  0  0  0  0  0  0
   47.3170   33.6250   42.7400 N   0  0  0  0  0  0  0  0  0  0  0  0
   46.6800   34.1610   40.4780 C   0  0  0  0  0  0  0  0  0  0  0  0
   48.0920   34.6100   40.2510 C   0  0  0  0  0  0  0  0  0  0  0  0
   44.3310   35.2020   41.4820 O   0  0  0  0  0  0  0  0  0  0  0  0
   42.4490   33.3630   41.4670 O   0  0  0  0  0  0  0  0  0  0  0  0
   42.6920   34.8670   41.3480 P   0  0  1  0  0  0  0  0  0  0  0  0
   41.8970   35.6270   42.6520 O   0  0  0  0  0  0  0  0  0  0  0  0
   41.9960   35.4640   39.9300 O   0  0  0  0  0  0  0  0  0  0  0  0
   40.6610   35.7070   39.7090 C   0  0  0  0  0  0  0  0  0  0  0  0
   40.1050   36.4620   40.5730 O   0  0  0  0  0  0  0  0  0  0  0  0
   44.0981   35.0375   44.2450 H   0  0  0  0  0  0  0  0  0  0  0  0
   47.8806   33.1518   44.7224 H   0  0  0  0  0  0  0  0  0  0  0  0
   46.5467   33.1474   40.0720 H   0  0  0  0  0  0  0  0  0  0  0  0
   45.9878   34.8499   39.9717 H   0  0  0  0  0  0  0  0  0  0  0  0
   48.5871   34.7674   41.2206 H   0  0  0  0  0  0  0  0  0  0  0  0
   48.6347   33.8401   39.6829 H   0  0  0  0  0  0  0  0  0  0  0  0
   48.0904   35.5519   39.6829 H   0  0  0  0  0  0  0  0  0  0  0  0
   42.2589   35.2810   43.5060 H   0  0  0  0  0  0  0  0  0  0  0  0
   40.1150   35.2830   38.8533 H   0  0  0  0  0  0  0  0  0  0  0  0
  1  2  2  0
  1  6  1  0
  2  3  1  0
  3  4  2  0
  5  4  1  0
  6  5  2  0
  7  1  1  0
  8  7  1  0
  9  2  1  0
 11 10  2  0
 11  9  1  0
 11 12  1  0
 13 11  1  0
 14 13  1  0
 14 15  2  0
  3 16  1  0
  5 17  1  0
  7 18  1  0
  7 19  1  0
  8 20  1  0
  8 21  1  0
  8 22  1  0
 12 23  1  0
 14 24  1  0
M  ISO  8  16  14  17  14  18   8  19   8  20   8  21   8  22   8  23   3
M  ISO  1  24   6
M  END
>  <minimizedAffinity>  (1) 
-4.12168646

>  <minimizedRMSD>  (1) 
1.74256063

$$$$
