
     RDKit          3D

 29 30  0  0  0  0  0  0  0  0999 V2000
   46.8870   34.3050   42.0220 C   0  0  0  0  0  0  0  0  0  0  0  0
   45.5180   34.1890   41.8410 C   0  0  0  0  0  0  0  0  0  0  0  0
   44.7360   33.8630   42.9790 C   0  0  0  0  0  0  0  0  0  0  0  0
   45.3740   33.6910   44.1420 N   0  0  0  0  0  0  0  0  0  0  0  0
   46.7140   33.8110   44.2860 C   0  0  0  0  0  0  0  0  0  0  0  0
   47.4370   34.1160   43.2150 N   0  0  0  0  0  0  0  0  0  0  0  0
   47.7510   34.6380   40.8920 C   0  0  0  0  0  0  0  0  0  0  0  0
   48.8230   35.5910   41.3560 C   0  0  0  0  0  0  0  0  0  0  0  0
   45.0200   34.4000   40.5620 O   0  0  0  0  0  0  0  0  0  0  0  0
   44.2200   33.4550   38.2550 O   0  0  0  0  0  0  0  0  0  0  0  0
   43.9000   33.4550   39.7500 P   0  0  1  0  0  0  0  0  0  0  0  0
   44.0280   31.8670   40.3270 O   0  0  0  0  0  0  0  0  0  0  0  0
   42.2960   33.9400   39.9790 O   0  0  0  0  0  0  0  0  0  0  0  0
   41.9790   35.0720   39.2530 C   0  0  0  0  0  0  0  0  0  0  0  0
   40.6820   35.7280   39.6710 C   0  0  0  0  0  0  0  0  0  0  0  0
   40.7540   35.0280   38.3590 C   0  0  0  0  0  0  0  0  0  0  0  0
   43.6436   33.7555   42.9074 H   0  0  0  0  0  0  0  0  0  0  0  0
   47.1920   33.6598   45.2651 H   0  0  0  0  0  0  0  0  0  0  0  0
   47.1542   35.1124   40.0991 H   0  0  0  0  0  0  0  0  0  0  0  0
   48.2146   33.7220   40.4969 H   0  0  0  0  0  0  0  0  0  0  0  0
   48.8452   35.6107   42.4556 H   0  0  0  0  0  0  0  0  0  0  0  0
   49.7997   35.2576   40.9755 H   0  0  0  0  0  0  0  0  0  0  0  0
   48.6063   36.6001   40.9755 H   0  0  0  0  0  0  0  0  0  0  0  0
   44.0274   31.8745   41.3170 H   0  0  0  0  0  0  0  0  0  0  0  0
   43.0253   35.3741   39.0981 H   0  0  0  0  0  0  0  0  0  0  0  0
   40.0888   35.2963   40.4906 H   0  0  0  0  0  0  0  0  0  0  0  0
   40.3957   36.7401   39.9931 H   0  0  0  0  0  0  0  0  0  0  0  0
   40.7349   35.6090   37.4251 H   0  0  0  0  0  0  0  0  0  0  0  0
   40.1759   34.2273   37.8746 H   0  0  0  0  0  0  0  0  0  0  0  0
  1  6  2  0
  2  1  1  0
  2  3  2  0
  3  4  1  0
  4  5  2  0
  6  5  1  0
  7  8  1  0
  7  1  1  0
  9  2  1  0
 11 10  2  0
 11 13  1  0
 11 12  1  0
 11  9  1  0
 14 15  1  0
 14 13  1  0
 16 14  1  0
 16 15  1  0
  3 17  1  0
  5 18  1  0
  7 19  1  0
  7 20  1  0
  8 21  1  0
  8 22  1  0
  8 23  1  0
 12 24  1  0
 14 25  1  0
 15 26  1  0
 15 27  1  0
 16 28  1  0
 16 29  1  0
M  ISO  8  17  14  18  14  19   8  20   8  21   8  22   8  23   8  24   3
M  ISO  5  25  13  26  13  27  13  28  13  29  13
M  END
>  <minimizedAffinity>  (1) 
-4.0061636

>  <minimizedRMSD>  (1) 
2.97561693

$$$$
