
     RDKit          3D

 41 43  0  0  0  0  0  0  0  0999 V2000
   43.8560   34.9900   40.2330 O   0  0  0  0  0  0  0  0  0  0  0  0
   43.3920   34.7970   41.6710 P   0  0  1  0  0  0  0  0  0  0  0  0
   43.2800   33.1270   41.9810 O   0  0  0  0  0  0  0  0  0  0  0  0
   44.5590   35.4320   42.7350 O   0  0  0  0  0  0  0  0  0  0  0  0
   46.6010   34.3220   43.0900 C   0  0  0  0  0  0  0  0  0  0  0  0
   45.3790   34.7140   43.5930 C   0  0  0  0  0  0  0  0  0  0  0  0
   45.0600   34.3650   44.9110 C   0  0  0  0  0  0  0  0  0  0  0  0
   45.9710   33.6650   45.6100 N   0  0  0  0  0  0  0  0  0  0  0  0
   47.1520   33.2910   45.1080 C   0  0  0  0  0  0  0  0  0  0  0  0
   47.4580   33.6240   43.8510 N   0  0  0  0  0  0  0  0  0  0  0  0
   46.9940   34.6560   41.7200 C   0  0  0  0  0  0  0  0  0  0  0  0
   48.3250   35.3560   41.7530 C   0  0  0  0  0  0  0  0  0  0  0  0
   41.8550   35.4620   41.9050 O   0  0  0  0  0  0  0  0  0  0  0  0
   40.7680   34.8120   41.3400 C   0  0  0  0  0  0  0  0  0  0  0  0
   39.9710   35.5150   40.4540 C   0  0  0  0  0  0  0  0  0  0  0  0
   38.8630   34.9410   39.8440 C   0  0  0  0  0  0  0  0  0  0  0  0
   38.5690   33.6370   40.1400 N   0  0  0  0  0  0  0  0  0  0  0  0
   39.3440   32.9710   40.9940 C   0  0  0  0  0  0  0  0  0  0  0  0
   40.4040   33.5280   41.5760 N   0  0  0  0  0  0  0  0  0  0  0  0
   38.9790   31.6190   41.2570 N   0  0  0  0  0  0  0  0  0  0  0  0
   37.7420   31.1650   40.9250 C   0  0  0  0  0  0  0  0  0  0  0  0
   37.4930   29.8400   41.2240 C   0  0  0  0  0  0  0  0  0  0  0  0
   38.3890   28.9730   41.8180 C   0  0  0  0  0  0  0  0  0  0  0  0
   38.0650   27.6170   42.0970 N   0  0  0  0  0  0  0  0  0  0  0  0
   39.5870   29.5120   42.1100 N   0  0  0  0  0  0  0  0  0  0  0  0
   39.8780   30.8100   41.8350 C   0  0  0  0  0  0  0  0  0  0  0  0
   41.0170   31.2410   42.1370 O   0  0  0  0  0  0  0  0  0  0  0  0
   43.2697   32.9729   42.9589 H   0  0  0  0  0  0  0  0  0  0  0  0
   44.0977   34.6534   45.3591 H   0  0  0  0  0  0  0  0  0  0  0  0
   47.8621   32.7170   45.7214 H   0  0  0  0  0  0  0  0  0  0  0  0
   46.2394   35.3181   41.2702 H   0  0  0  0  0  0  0  0  0  0  0  0
   47.0702   33.7377   41.1193 H   0  0  0  0  0  0  0  0  0  0  0  0
   48.6293   35.5160   42.7979 H   0  0  0  0  0  0  0  0  0  0  0  0
   49.0776   34.7370   41.2426 H   0  0  0  0  0  0  0  0  0  0  0  0
   48.2415   36.3268   41.2426 H   0  0  0  0  0  0  0  0  0  0  0  0
   40.2227   36.5612   40.2256 H   0  0  0  0  0  0  0  0  0  0  0  0
   38.2402   35.5170   39.1438 H   0  0  0  0  0  0  0  0  0  0  0  0
   36.9887   31.8103   40.4495 H   0  0  0  0  0  0  0  0  0  0  0  0
   36.4997   29.4426   40.9681 H   0  0  0  0  0  0  0  0  0  0  0  0
   38.7616   27.0020   42.5413 H   0  0  0  0  0  0  0  0  0  0  0  0
   37.1337   27.2497   41.8548 H   0  0  0  0  0  0  0  0  0  0  0  0
  2  1  2  0
  2 13  1  0
  2  3  1  0
  2  4  1  0
  4  6  1  0
  5  6  2  0
  5 10  1  0
  6  7  1  0
  7  8  2  0
  9  8  1  0
 10  9  2  0
 11 12  1  0
 11  5  1  0
 14 19  1  0
 14 13  1  0
 15 14  2  0
 16 17  2  0
 16 15  1  0
 17 18  1  0
 18 20  1  0
 18 19  2  0
 20 26  1  0
 21 22  2  0
 21 20  1  0
 22 23  1  0
 23 24  1  0
 23 25  2  0
 26 25  1  0
 26 27  2  0
  3 28  1  0
  7 29  1  0
  9 30  1  0
 11 31  1  0
 11 32  1  0
 12 33  1  0
 12 34  1  0
 12 35  1  0
 15 36  1  0
 16 37  1  0
 21 38  1  0
 22 39  1  0
 24 40  1  0
 24 41  1  0
M  ISO  8  28   3  29  14  30  14  31   8  32   8  33   8  34   8  35   8
M  ISO  4  36  14  37  14  38  14  39  14
M  END
>  <minimizedAffinity>  (1) 
-6.52408504

>  <minimizedRMSD>  (1) 
0.58510077

$$$$
