
     RDKit          3D

 40 42  0  0  0  0  0  0  0  0999 V2000
   43.8970   34.8340   40.2550 O   0  0  0  0  0  0  0  0  0  0  0  0
   43.4040   34.7250   41.6920 P   0  0  1  0  0  0  0  0  0  0  0  0
   43.2620   33.0740   42.0640 O   0  0  0  0  0  0  0  0  0  0  0  0
   44.5570   35.3900   42.7460 O   0  0  0  0  0  0  0  0  0  0  0  0
   46.4930   34.1570   43.2790 C   0  0  0  0  0  0  0  0  0  0  0  0
   45.2970   34.7040   43.7000 C   0  0  0  0  0  0  0  0  0  0  0  0
   44.9290   34.5220   45.0520 C   0  0  0  0  0  0  0  0  0  0  0  0
   45.7750   33.8250   45.8380 N   0  0  0  0  0  0  0  0  0  0  0  0
   46.9210   33.3070   45.4130 C   0  0  0  0  0  0  0  0  0  0  0  0
   47.2770   33.4770   44.1300 N   0  0  0  0  0  0  0  0  0  0  0  0
   46.9390   34.3050   41.8960 C   0  0  0  0  0  0  0  0  0  0  0  0
   48.1060   35.2520   41.8630 C   0  0  0  0  0  0  0  0  0  0  0  0
   41.8760   35.4250   41.8560 O   0  0  0  0  0  0  0  0  0  0  0  0
   40.7890   34.7650   41.3130 C   0  0  0  0  0  0  0  0  0  0  0  0
   40.0310   35.4420   40.3730 C   0  0  0  0  0  0  0  0  0  0  0  0
   38.9150   34.8620   39.7670 C   0  0  0  0  0  0  0  0  0  0  0  0
   38.5800   33.6010   40.1200 N   0  0  0  0  0  0  0  0  0  0  0  0
   39.3210   32.9470   41.0340 C   0  0  0  0  0  0  0  0  0  0  0  0
   40.3770   33.5250   41.5940 N   0  0  0  0  0  0  0  0  0  0  0  0
   38.9600   31.5660   41.4250 C   0  0  0  0  0  0  0  0  0  0  0  0
   39.8850   30.8030   42.1230 C   0  0  0  0  0  0  0  0  0  0  0  0
   39.5440   29.5080   42.4890 C   0  0  0  0  0  0  0  0  0  0  0  0
   38.2910   29.0470   42.1340 C   0  0  0  0  0  0  0  0  0  0  0  0
   37.3370   29.7650   41.4410 C   0  0  0  0  0  0  0  0  0  0  0  0
   37.7010   31.0590   41.0860 C   0  0  0  0  0  0  0  0  0  0  0  0
   43.2519   32.9569   43.0470 H   0  0  0  0  0  0  0  0  0  0  0  0
   43.9887   34.9329   45.4483 H   0  0  0  0  0  0  0  0  0  0  0  0
   47.5696   32.7465   46.1024 H   0  0  0  0  0  0  0  0  0  0  0  0
   47.2459   33.3259   41.4996 H   0  0  0  0  0  0  0  0  0  0  0  0
   46.1188   34.7003   41.2787 H   0  0  0  0  0  0  0  0  0  0  0  0
   48.4083   35.4973   42.8918 H   0  0  0  0  0  0  0  0  0  0  0  0
   48.9477   34.7784   41.3365 H   0  0  0  0  0  0  0  0  0  0  0  0
   47.8159   36.1732   41.3365 H   0  0  0  0  0  0  0  0  0  0  0  0
   40.3165   36.4674   40.0953 H   0  0  0  0  0  0  0  0  0  0  0  0
   38.3244   35.4161   39.0226 H   0  0  0  0  0  0  0  0  0  0  0  0
   40.8708   31.2167   42.3817 H   0  0  0  0  0  0  0  0  0  0  0  0
   40.2482   28.8701   43.0433 H   0  0  0  0  0  0  0  0  0  0  0  0
   38.0311   28.0196   42.4288 H   0  0  0  0  0  0  0  0  0  0  0  0
   36.3542   29.3415   41.1866 H   0  0  0  0  0  0  0  0  0  0  0  0
   36.9911   31.6912   40.5324 H   0  0  0  0  0  0  0  0  0  0  0  0
  2  1  2  0
  2 13  1  0
  2  3  1  0
  2  4  1  0
  4  6  1  0
  5  6  2  0
  5 10  1  0
  6  7  1  0
  7  8  2  0
  9  8  1  0
 10  9  2  0
 11  5  1  0
 12 11  1  0
 14 19  1  0
 14 13  1  0
 15 14  2  0
 16 17  2  0
 16 15  1  0
 17 18  1  0
 18 20  1  0
 18 19  2  0
 20 21  2  0
 21 22  1  0
 23 22  2  0
 24 23  1  0
 25 20  1  0
 25 24  2  0
  3 26  1  0
  7 27  1  0
  9 28  1  0
 11 29  1  0
 11 30  1  0
 12 31  1  0
 12 32  1  0
 12 33  1  0
 15 34  1  0
 16 35  1  0
 21 36  1  0
 22 37  1  0
 23 38  1  0
 24 39  1  0
 25 40  1  0
M  ISO  8  26   3  27  14  28  14  29   8  30   8  31   8  32   8  33   8
M  ISO  7  34  14  35  14  36  14  37  14  38  14  39  14  40  14
M  END
>  <minimizedAffinity>  (1) 
-6.05564928

>  <minimizedRMSD>  (1) 
0.620354116

$$$$
