
     RDKit          3D

 37 39  0  0  0  0  0  0  0  0999 V2000
   43.6020   34.8940   40.1480 O   0  0  0  0  0  0  0  0  0  0  0  0
   43.1690   34.6990   41.5950 P   0  0  1  0  0  0  0  0  0  0  0  0
   43.1600   33.0450   41.9420 O   0  0  0  0  0  0  0  0  0  0  0  0
   44.3110   35.4270   42.6170 O   0  0  0  0  0  0  0  0  0  0  0  0
   46.3690   34.3590   43.0410 C   0  0  0  0  0  0  0  0  0  0  0  0
   45.1400   34.7790   43.5230 C   0  0  0  0  0  0  0  0  0  0  0  0
   44.8460   34.5170   44.8650 C   0  0  0  0  0  0  0  0  0  0  0  0
   45.7760   33.8730   45.6030 N   0  0  0  0  0  0  0  0  0  0  0  0
   46.9540   33.4790   45.1130 C   0  0  0  0  0  0  0  0  0  0  0  0
   47.2550   33.7230   43.8180 N   0  0  0  0  0  0  0  0  0  0  0  0
   46.7510   34.5980   41.6420 C   0  0  0  0  0  0  0  0  0  0  0  0
   48.1390   35.1880   41.6070 C   0  0  0  0  0  0  0  0  0  0  0  0
   41.6000   35.2800   41.8400 O   0  0  0  0  0  0  0  0  0  0  0  0
   40.5400   34.5830   41.2780 C   0  0  0  0  0  0  0  0  0  0  0  0
   39.8270   35.2240   40.2680 C   0  0  0  0  0  0  0  0  0  0  0  0
   38.7530   34.6050   39.6480 C   0  0  0  0  0  0  0  0  0  0  0  0
   38.4080   33.3450   40.0570 N   0  0  0  0  0  0  0  0  0  0  0  0
   39.1020   32.7500   41.0250 C   0  0  0  0  0  0  0  0  0  0  0  0
   40.1420   33.3440   41.6250 N   0  0  0  0  0  0  0  0  0  0  0  0
   38.6750   31.4060   41.4050 C   0  0  0  0  0  0  0  0  0  0  0  0
   39.4310   30.3730   41.9160 C   0  0  0  0  0  0  0  0  0  0  0  0
   38.5040   29.3390   42.0880 C   0  0  0  0  0  0  0  0  0  0  0  0
   37.2780   29.7260   41.7080 N   0  0  0  0  0  0  0  0  0  0  0  0
   37.4030   30.9790   41.2980 N   0  0  0  0  0  0  0  0  0  0  0  0
   43.1593   32.9137   42.9233 H   0  0  0  0  0  0  0  0  0  0  0  0
   43.8868   34.8259   45.3059 H   0  0  0  0  0  0  0  0  0  0  0  0
   47.6757   32.9586   45.7598 H   0  0  0  0  0  0  0  0  0  0  0  0
   46.7401   33.6472   41.0889 H   0  0  0  0  0  0  0  0  0  0  0  0
   46.0387   35.2945   41.1756 H   0  0  0  0  0  0  0  0  0  0  0  0
   48.4985   35.3408   42.6353 H   0  0  0  0  0  0  0  0  0  0  0  0
   48.8166   34.5001   41.0801 H   0  0  0  0  0  0  0  0  0  0  0  0
   48.1139   36.1533   41.0801 H   0  0  0  0  0  0  0  0  0  0  0  0
   40.1208   36.2375   39.9574 H   0  0  0  0  0  0  0  0  0  0  0  0
   38.1929   35.1126   38.8488 H   0  0  0  0  0  0  0  0  0  0  0  0
   40.5086   30.3636   42.1365 H   0  0  0  0  0  0  0  0  0  0  0  0
   38.7486   28.3417   42.4824 H   0  0  0  0  0  0  0  0  0  0  0  0
   36.4153   29.1638   41.7304 H   0  0  0  0  0  0  0  0  0  0  0  0
  2  1  2  0
  2 13  1  0
  2  3  1  0
  2  4  1  0
  4  6  1  0
  5  6  2  0
  5 10  1  0
  6  7  1  0
  7  8  2  0
  9  8  1  0
 10  9  2  0
 11  5  1  0
 12 11  1  0
 14 19  1  0
 14 13  1  0
 15 14  2  0
 16 17  2  0
 16 15  1  0
 17 18  1  0
 18 20  1  0
 18 19  2  0
 20 21  1  0
 21 22  2  0
 23 22  1  0
 24 20  2  0
 24 23  1  0
  3 25  1  0
  7 26  1  0
  9 27  1  0
 11 28  1  0
 11 29  1  0
 12 30  1  0
 12 31  1  0
 12 32  1  0
 15 33  1  0
 16 34  1  0
 21 35  1  0
 22 36  1  0
 23 37  1  0
M  ISO  8  25   3  26  14  27  14  28   8  29   8  30   8  31   8  32   8
M  ISO  5  33  14  34  14  35  14  36  14  37   9
M  END
>  <minimizedAffinity>  (1) 
-5.77488518

>  <minimizedRMSD>  (1) 
0.397404253

$$$$
