
     RDKit          3D

 43 45  0  0  0  0  0  0  0  0999 V2000
   43.7040   34.8110   40.1510 O   0  0  0  0  0  0  0  0  0  0  0  0
   43.2700   34.7040   41.6100 P   0  0  1  0  0  0  0  0  0  0  0  0
   43.1770   33.0490   41.9880 O   0  0  0  0  0  0  0  0  0  0  0  0
   44.4570   35.3900   42.5950 O   0  0  0  0  0  0  0  0  0  0  0  0
   46.5320   34.3500   43.0050 C   0  0  0  0  0  0  0  0  0  0  0  0
   45.2910   34.7140   43.4880 C   0  0  0  0  0  0  0  0  0  0  0  0
   44.9630   34.3820   44.8230 C   0  0  0  0  0  0  0  0  0  0  0  0
   45.9050   33.7220   45.5370 N   0  0  0  0  0  0  0  0  0  0  0  0
   47.0930   33.3830   45.0520 C   0  0  0  0  0  0  0  0  0  0  0  0
   47.4140   33.6940   43.7830 N   0  0  0  0  0  0  0  0  0  0  0  0
   46.9260   34.6640   41.6380 C   0  0  0  0  0  0  0  0  0  0  0  0
   48.2780   35.3320   41.6590 C   0  0  0  0  0  0  0  0  0  0  0  0
   41.7460   35.3740   41.8290 O   0  0  0  0  0  0  0  0  0  0  0  0
   40.6490   34.7460   41.2400 C   0  0  0  0  0  0  0  0  0  0  0  0
   40.0040   35.4410   40.2190 C   0  0  0  0  0  0  0  0  0  0  0  0
   38.9040   34.8980   39.5710 C   0  0  0  0  0  0  0  0  0  0  0  0
   38.4680   33.6700   39.9570 N   0  0  0  0  0  0  0  0  0  0  0  0
   39.0890   33.0140   40.9320 C   0  0  0  0  0  0  0  0  0  0  0  0
   40.1510   33.5380   41.5550 N   0  0  0  0  0  0  0  0  0  0  0  0
   38.6270   31.6680   41.3680 C   0  0  0  0  0  0  0  0  0  0  0  0
   38.1450   30.8120   40.2250 C   0  0  0  0  0  0  0  0  0  0  0  0
   38.2030   29.3990   40.8190 C   0  0  0  0  0  0  0  0  0  0  0  0
   39.0560   29.4710   42.0420 C   0  0  0  0  0  0  0  0  0  0  0  0
   39.7350   30.8180   41.9220 C   0  0  0  0  0  0  0  0  0  0  0  0
   43.1706   32.9350   42.9714 H   0  0  0  0  0  0  0  0  0  0  0  0
   43.9891   34.6473   45.2603 H   0  0  0  0  0  0  0  0  0  0  0  0
   47.8146   32.8482   45.6870 H   0  0  0  0  0  0  0  0  0  0  0  0
   46.1864   35.3421   41.1873 H   0  0  0  0  0  0  0  0  0  0  0  0
   46.9768   33.7397   41.0438 H   0  0  0  0  0  0  0  0  0  0  0  0
   48.5937   35.4880   42.7011 H   0  0  0  0  0  0  0  0  0  0  0  0
   49.0110   34.6924   41.1456 H   0  0  0  0  0  0  0  0  0  0  0  0
   48.2153   36.3028   41.1456 H   0  0  0  0  0  0  0  0  0  0  0  0
   40.3722   36.4343   39.9226 H   0  0  0  0  0  0  0  0  0  0  0  0
   38.3971   35.4480   38.7644 H   0  0  0  0  0  0  0  0  0  0  0  0
   37.8449   31.9144   42.1012 H   0  0  0  0  0  0  0  0  0  0  0  0
   38.8087   30.9037   39.3526 H   0  0  0  0  0  0  0  0  0  0  0  0
   37.1464   31.0924   39.8587 H   0  0  0  0  0  0  0  0  0  0  0  0
   37.1909   29.0596   41.0844 H   0  0  0  0  0  0  0  0  0  0  0  0
   38.6200   28.6860   40.0925 H   0  0  0  0  0  0  0  0  0  0  0  0
   38.4417   29.4204   42.9531 H   0  0  0  0  0  0  0  0  0  0  0  0
   39.7696   28.6371   42.1157 H   0  0  0  0  0  0  0  0  0  0  0  0
   40.5912   30.7757   41.2327 H   0  0  0  0  0  0  0  0  0  0  0  0
   40.1557   31.1923   42.8669 H   0  0  0  0  0  0  0  0  0  0  0  0
  2  1  2  0
  2 13  1  0
  2  3  1  0
  2  4  1  0
  4  6  1  0
  5  6  2  0
  5 10  1  0
  6  7  1  0
  7  8  2  0
  9  8  1  0
 10  9  2  0
 11 12  1  0
 11  5  1  0
 14 19  1  0
 14 13  1  0
 15 14  2  0
 16 17  2  0
 16 15  1  0
 17 18  1  0
 18 20  1  0
 18 19  2  0
 20 24  1  0
 21 22  1  0
 21 20  1  0
 22 23  1  0
 24 23  1  0
  3 25  1  0
  7 26  1  0
  9 27  1  0
 11 28  1  0
 11 29  1  0
 12 30  1  0
 12 31  1  0
 12 32  1  0
 15 33  1  0
 16 34  1  0
 20 35  1  0
 21 36  1  0
 21 37  1  0
 22 38  1  0
 22 39  1  0
 23 40  1  0
 23 41  1  0
 24 42  1  0
 24 43  1  0
M  ISO  8  25   3  26  14  27  14  28   8  29   8  30   8  31   8  32   8
M  ISO  8  33  14  34  14  35  13  36  13  37  13  38  13  39  13  40  13
M  ISO  3  41  13  42  13  43  13
M  END
>  <minimizedAffinity>  (1) 
-5.63569832

>  <minimizedRMSD>  (1) 
0.267235786

$$$$
