
     RDKit          3D

 33 34  0  0  0  0  0  0  0  0999 V2000
   43.6880   34.8210   40.1410 O   0  0  0  0  0  0  0  0  0  0  0  0
   43.2660   34.6640   41.5980 P   0  0  1  0  0  0  0  0  0  0  0  0
   43.1950   33.0150   41.9750 O   0  0  0  0  0  0  0  0  0  0  0  0
   44.4230   35.3760   42.5980 O   0  0  0  0  0  0  0  0  0  0  0  0
   46.5080   34.3490   43.0090 C   0  0  0  0  0  0  0  0  0  0  0  0
   45.2620   34.7130   43.4890 C   0  0  0  0  0  0  0  0  0  0  0  0
   44.9500   34.3840   44.8260 C   0  0  0  0  0  0  0  0  0  0  0  0
   45.8880   33.7380   45.5420 N   0  0  0  0  0  0  0  0  0  0  0  0
   47.0840   33.3960   45.0620 C   0  0  0  0  0  0  0  0  0  0  0  0
   47.3880   33.7090   43.7840 N   0  0  0  0  0  0  0  0  0  0  0  0
   46.9020   34.6560   41.6370 C   0  0  0  0  0  0  0  0  0  0  0  0
   48.2590   35.3240   41.6580 C   0  0  0  0  0  0  0  0  0  0  0  0
   41.7090   35.2940   41.8390 O   0  0  0  0  0  0  0  0  0  0  0  0
   40.6350   34.6580   41.2460 C   0  0  0  0  0  0  0  0  0  0  0  0
   39.8780   35.3480   40.3090 C   0  0  0  0  0  0  0  0  0  0  0  0
   38.7910   34.7740   39.6780 C   0  0  0  0  0  0  0  0  0  0  0  0
   38.4670   33.4940   39.9970 N   0  0  0  0  0  0  0  0  0  0  0  0
   39.1960   32.8170   40.9060 C   0  0  0  0  0  0  0  0  0  0  0  0
   40.2450   33.3960   41.5030 N   0  0  0  0  0  0  0  0  0  0  0  0
   38.7790   31.4220   41.2010 C   0  0  0  0  0  0  0  0  0  0  0  0
   37.4460   31.3140   41.4690 F   0  0  0  0  0  0  0  0  0  0  0  0
   39.4650   30.8840   42.2890 F   0  0  0  0  0  0  0  0  0  0  0  0
   39.0530   30.6130   40.0920 F   0  0  0  0  0  0  0  0  0  0  0  0
   43.1901   32.9012   42.9584 H   0  0  0  0  0  0  0  0  0  0  0  0
   43.9764   34.6461   45.2658 H   0  0  0  0  0  0  0  0  0  0  0  0
   47.8109   32.8677   45.6964 H   0  0  0  0  0  0  0  0  0  0  0  0
   46.1635   35.3331   41.1829 H   0  0  0  0  0  0  0  0  0  0  0  0
   46.9502   33.7298   41.0456 H   0  0  0  0  0  0  0  0  0  0  0  0
   48.5750   35.4796   42.7001 H   0  0  0  0  0  0  0  0  0  0  0  0
   48.9911   34.6833   41.1446 H   0  0  0  0  0  0  0  0  0  0  0  0
   48.1977   36.2949   41.1446 H   0  0  0  0  0  0  0  0  0  0  0  0
   40.1521   36.3841   40.0611 H   0  0  0  0  0  0  0  0  0  0  0  0
   38.2043   35.3379   38.9379 H   0  0  0  0  0  0  0  0  0  0  0  0
  2  1  2  0
  2 13  1  0
  2  3  1  0
  2  4  1  0
  4  6  1  0
  5  6  2  0
  5 10  1  0
  6  7  1  0
  7  8  2  0
  9  8  1  0
 10  9  2  0
 11 12  1  0
 11  5  1  0
 14 19  1  0
 14 13  1  0
 15 14  2  0
 16 17  2  0
 16 15  1  0
 17 18  1  0
 18 20  1  0
 18 19  2  0
 20 21  1  0
 20 22  1  0
 23 20  1  0
  3 24  1  0
  7 25  1  0
  9 26  1  0
 11 27  1  0
 11 28  1  0
 12 29  1  0
 12 30  1  0
 12 31  1  0
 15 32  1  0
 16 33  1  0
M  ISO  8  24   3  25  14  26  14  27   8  28   8  29   8  30   8  31   8
M  ISO  2  32  14  33  14
M  END
>  <minimizedAffinity>  (1) 
-5.45772171

>  <minimizedRMSD>  (1) 
0.602528572

$$$$
