
     RDKit          3D

 31 32  0  0  0  0  0  0  0  0999 V2000
   44.4480   35.4000   42.5950 O   0  0  0  0  0  0  0  0  0  0  0  0
   46.5280   34.3520   42.9920 C   0  0  0  0  0  0  0  0  0  0  0  0
   45.2820   34.7250   43.4670 C   0  0  0  0  0  0  0  0  0  0  0  0
   44.9590   34.3910   44.7930 C   0  0  0  0  0  0  0  0  0  0  0  0
   45.8800   33.7320   45.5160 N   0  0  0  0  0  0  0  0  0  0  0  0
   47.0830   33.3810   45.0330 C   0  0  0  0  0  0  0  0  0  0  0  0
   47.3940   33.6950   43.7740 N   0  0  0  0  0  0  0  0  0  0  0  0
   46.9270   34.6670   41.6240 C   0  0  0  0  0  0  0  0  0  0  0  0
   48.2790   35.3280   41.6440 C   0  0  0  0  0  0  0  0  0  0  0  0
   43.6710   34.8300   40.1470 O   0  0  0  0  0  0  0  0  0  0  0  0
   43.2580   34.7140   41.6010 P   0  0  1  0  0  0  0  0  0  0  0  0
   43.1390   33.0760   41.9970 O   0  0  0  0  0  0  0  0  0  0  0  0
   41.7310   35.4190   41.8300 O   0  0  0  0  0  0  0  0  0  0  0  0
   40.6250   34.7970   41.2450 C   0  0  0  0  0  0  0  0  0  0  0  0
   40.0790   35.4330   40.1300 C   0  0  0  0  0  0  0  0  0  0  0  0
   38.9790   34.8970   39.4760 C   0  0  0  0  0  0  0  0  0  0  0  0
   38.4380   33.7390   39.9400 N   0  0  0  0  0  0  0  0  0  0  0  0
   38.9780   33.1410   41.0170 C   0  0  0  0  0  0  0  0  0  0  0  0
   40.0390   33.6570   41.6470 N   0  0  0  0  0  0  0  0  0  0  0  0
   38.4190   31.9550   41.4870 O   0  0  0  0  0  0  0  0  0  0  0  0
   43.9839   34.6603   45.2251 H   0  0  0  0  0  0  0  0  0  0  0  0
   47.8024   32.8418   45.6669 H   0  0  0  0  0  0  0  0  0  0  0  0
   46.1906   35.3487   41.1734 H   0  0  0  0  0  0  0  0  0  0  0  0
   46.9759   33.7422   41.0305 H   0  0  0  0  0  0  0  0  0  0  0  0
   48.5960   35.4830   42.6859 H   0  0  0  0  0  0  0  0  0  0  0  0
   49.0091   34.6852   41.1304 H   0  0  0  0  0  0  0  0  0  0  0  0
   48.2201   36.2989   41.1304 H   0  0  0  0  0  0  0  0  0  0  0  0
   43.1316   32.9743   42.9817 H   0  0  0  0  0  0  0  0  0  0  0  0
   40.5255   36.3698   39.7652 H   0  0  0  0  0  0  0  0  0  0  0  0
   38.5515   35.4006   38.5965 H   0  0  0  0  0  0  0  0  0  0  0  0
   38.8068   31.5047   42.2788 H   0  0  0  0  0  0  0  0  0  0  0  0
  1  3  1  0
  2  3  2  0
  2  7  1  0
  3  4  1  0
  4  5  2  0
  6  5  1  0
  7  6  2  0
  8  9  1  0
  8  2  1  0
 11 10  2  0
 11 13  1  0
 11 12  1  0
 11  1  1  0
 14 19  1  0
 14 13  1  0
 15 14  2  0
 16 17  2  0
 16 15  1  0
 17 18  1  0
 18 20  1  0
 18 19  2  0
  4 21  1  0
  6 22  1  0
  8 23  1  0
  8 24  1  0
  9 25  1  0
  9 26  1  0
  9 27  1  0
 12 28  1  0
 15 29  1  0
 16 30  1  0
 20 31  1  0
M  ISO  8  21  14  22  14  23   8  24   8  25   8  26   8  27   8  28   3
M  ISO  3  29  14  30  14  31   3
M  END
>  <minimizedAffinity>  (1) 
-5.30444908

>  <minimizedRMSD>  (1) 
0.122914575

$$$$
