
     RDKit          3D

 33 34  0  0  0  0  0  0  0  0999 V2000
   44.4540   35.3970   42.6100 O   0  0  0  0  0  0  0  0  0  0  0  0
   46.5290   34.3510   43.0280 C   0  0  0  0  0  0  0  0  0  0  0  0
   45.2910   34.7180   43.4970 C   0  0  0  0  0  0  0  0  0  0  0  0
   44.9660   34.3840   44.8190 C   0  0  0  0  0  0  0  0  0  0  0  0
   45.8910   33.7240   45.5460 N   0  0  0  0  0  0  0  0  0  0  0  0
   47.0950   33.3790   45.0580 C   0  0  0  0  0  0  0  0  0  0  0  0
   47.4170   33.6960   43.7850 N   0  0  0  0  0  0  0  0  0  0  0  0
   46.9240   34.6720   41.6540 C   0  0  0  0  0  0  0  0  0  0  0  0
   48.2770   35.3300   41.6670 C   0  0  0  0  0  0  0  0  0  0  0  0
   43.6990   34.8260   40.1540 O   0  0  0  0  0  0  0  0  0  0  0  0
   43.2770   34.7060   41.6190 P   0  0  1  0  0  0  0  0  0  0  0  0
   43.1880   33.0500   41.9840 O   0  0  0  0  0  0  0  0  0  0  0  0
   41.7340   35.3630   41.8480 O   0  0  0  0  0  0  0  0  0  0  0  0
   40.6490   34.7310   41.2600 C   0  0  0  0  0  0  0  0  0  0  0  0
   39.9910   35.4200   40.2350 C   0  0  0  0  0  0  0  0  0  0  0  0
   38.8970   34.8940   39.5740 C   0  0  0  0  0  0  0  0  0  0  0  0
   38.4660   33.6670   39.9510 N   0  0  0  0  0  0  0  0  0  0  0  0
   39.1000   33.0050   40.9390 C   0  0  0  0  0  0  0  0  0  0  0  0
   40.1590   33.5260   41.5710 N   0  0  0  0  0  0  0  0  0  0  0  0
   38.5800   31.6570   41.3090 C   0  0  0  0  0  0  0  0  0  0  0  0
   43.9895   34.6511   45.2492 H   0  0  0  0  0  0  0  0  0  0  0  0
   47.8148   32.8410   45.6924 H   0  0  0  0  0  0  0  0  0  0  0  0
   46.1865   35.3568   41.2100 H   0  0  0  0  0  0  0  0  0  0  0  0
   46.9688   33.7486   41.0579 H   0  0  0  0  0  0  0  0  0  0  0  0
   48.5987   35.4864   42.7072 H   0  0  0  0  0  0  0  0  0  0  0  0
   49.0036   34.6846   41.1516 H   0  0  0  0  0  0  0  0  0  0  0  0
   48.2180   36.3000   41.1516 H   0  0  0  0  0  0  0  0  0  0  0  0
   43.1815   32.9285   42.9665 H   0  0  0  0  0  0  0  0  0  0  0  0
   40.3575   36.4158   39.9450 H   0  0  0  0  0  0  0  0  0  0  0  0
   38.3944   35.4522   38.7704 H   0  0  0  0  0  0  0  0  0  0  0  0
   38.5448   31.5656   42.4046 H   0  0  0  0  0  0  0  0  0  0  0  0
   37.5679   31.5288   40.8976 H   0  0  0  0  0  0  0  0  0  0  0  0
   39.2438   30.8823   40.8976 H   0  0  0  0  0  0  0  0  0  0  0  0
  1  3  1  0
  2  3  2  0
  2  7  1  0
  3  4  1  0
  4  5  2  0
  6  5  1  0
  7  6  2  0
  8  9  1  0
  8  2  1  0
 11 10  2  0
 11 13  1  0
 11 12  1  0
 11  1  1  0
 14 19  1  0
 14 13  1  0
 15 14  2  0
 16 17  2  0
 16 15  1  0
 17 18  1  0
 18 20  1  0
 18 19  2  0
  4 21  1  0
  6 22  1  0
  8 23  1  0
  8 24  1  0
  9 25  1  0
  9 26  1  0
  9 27  1  0
 12 28  1  0
 15 29  1  0
 16 30  1  0
 20 31  1  0
 20 32  1  0
 20 33  1  0
M  ISO  8  21  14  22  14  23   8  24   8  25   8  26   8  27   8  28   3
M  ISO  5  29  14  30  14  31   8  32   8  33   8
M  END
>  <minimizedAffinity>  (1) 
-5.16937351

>  <minimizedRMSD>  (1) 
0.143456459

$$$$
