
     RDKit          3D

 30 32  0  0  1  0  0  0  0  0999 V2000
   46.8400   35.0080   41.5770 C   0  0  1  0  0  0  0  0  0  0  0  0
   48.3190   35.3080   41.6940 C   0  0  0  0  0  0  0  0  0  0  0  0
   47.7660   33.9190   41.2920 C   0  0  2  0  0  0  0  0  0  0  0  0
   44.5790   35.9100   44.4560 C   0  0  0  0  0  0  0  0  0  0  0  0
   45.2100   36.0020   43.1980 C   0  0  0  0  0  0  0  0  0  0  0  0
   46.1330   35.0130   42.9030 C   0  0  0  0  0  0  0  0  0  0  0  0
   46.4020   34.0120   43.8050 N   0  0  0  0  0  0  0  0  0  0  0  0
   45.7690   33.9600   45.0130 C   0  0  0  0  0  0  0  0  0  0  0  0
   44.8650   34.9120   45.3210 N   0  0  0  0  0  0  0  0  0  0  0  0
   46.9150   32.8340   39.2370 C   0  0  1  0  0  0  0  0  0  0  0  0
   48.1060   33.4800   39.9010 C   0  0  1  0  0  0  0  0  0  0  0  0
   48.4510   34.5680   39.1360 O   0  0  0  0  0  0  0  0  0  0  0  0
   48.0750   34.3590   37.8310 C   0  0  0  0  0  0  0  0  0  0  0  0
   47.0720   33.2420   37.7860 C   0  0  2  0  0  0  0  0  0  0  0  0
   47.0290   31.4290   39.2910 O   0  0  0  0  0  0  0  0  0  0  0  0
   45.8700   33.7330   37.2780 O   0  0  0  0  0  0  0  0  0  0  0  0
   45.9903   35.4140   41.0084 H   0  0  0  0  0  0  0  0  0  0  0  0
   48.8200   35.9461   40.9511 H   0  0  0  0  0  0  0  0  0  0  0  0
   48.9921   35.7027   42.4693 H   0  0  0  0  0  0  0  0  0  0  0  0
   47.8052   32.8816   41.6556 H   0  0  0  0  0  0  0  0  0  0  0  0
   43.8357   36.6694   44.7400 H   0  0  0  0  0  0  0  0  0  0  0  0
   44.9818   36.8135   42.4913 H   0  0  0  0  0  0  0  0  0  0  0  0
   45.9932   33.1526   45.7256 H   0  0  0  0  0  0  0  0  0  0  0  0
   45.9634   33.1258   39.7053 H   0  0  0  0  0  0  0  0  0  0  0  0
   48.9388   32.7652   39.9751 H   0  0  0  0  0  0  0  0  0  0  0  0
   47.6240   35.2766   37.4253 H   0  0  0  0  0  0  0  0  0  0  0  0
   48.9556   34.0934   37.2277 H   0  0  0  0  0  0  0  0  0  0  0  0
   47.3762   32.3978   37.1497 H   0  0  0  0  0  0  0  0  0  0  0  0
   47.0528   31.1359   40.2363 H   0  0  0  0  0  0  0  0  0  0  0  0
   45.2707   33.9778   38.0270 H   0  0  0  0  0  0  0  0  0  0  0  0
  1  2  1  0
  1  6  1  0
  3  1  1  0
  3  2  1  0
  4  9  2  0
  5  4  1  0
  6  5  2  0
  6  7  1  0
  7  8  2  0
  8  9  1  0
 10 15  1  0
 10 11  1  0
 11 12  1  0
 11  3  1  0
 13 12  1  0
 14 16  1  0
 14 13  1  0
 14 10  1  0
  1 17  1  6
  2 18  1  0
  2 19  1  0
  3 20  1  1
  4 21  1  0
  5 22  1  0
  8 23  1  0
 10 24  1  1
 11 25  1  1
 13 26  1  0
 13 27  1  0
 14 28  1  6
 15 29  1  0
 16 30  1  0
M  ISO  8  17  13  18  13  19  13  20  13  21  14  22  14  23  14  24  13
M  ISO  6  25  13  26  13  27  13  28  13  29   3  30   3
M  END
>  <minimizedAffinity>  (1) 
-4.96530151

>  <minimizedRMSD>  (1) 
0.902652264

$$$$
