
     RDKit          3D

 25 26  0  0  1  0  0  0  0  0999 V2000
   47.1710   34.7680   41.7190 C   0  0  1  0  0  0  0  0  0  0  0  0
   48.4370   35.5930   41.7890 C   0  0  0  0  0  0  0  0  0  0  0  0
   48.4360   34.0490   41.8160 C   0  0  2  0  0  0  0  0  0  0  0  0
   44.6230   35.8750   44.2810 C   0  0  0  0  0  0  0  0  0  0  0  0
   45.3830   35.8770   43.0710 C   0  0  0  0  0  0  0  0  0  0  0  0
   46.3320   34.8740   42.9630 C   0  0  0  0  0  0  0  0  0  0  0  0
   46.5040   33.9590   43.9700 N   0  0  0  0  0  0  0  0  0  0  0  0
   45.7610   33.9960   45.0970 C   0  0  0  0  0  0  0  0  0  0  0  0
   44.8320   34.9570   45.2300 N   0  0  0  0  0  0  0  0  0  0  0  0
   49.0700   33.3300   40.7860 N   0  0  0  0  0  0  0  0  0  0  0  0
   50.3200   32.2830   41.2220 S   0  0  0  0  0  0  0  0  0  0  0  0
   51.1350   32.9320   42.3080 O   0  0  0  0  0  0  0  0  0  0  0  0
   49.8930   30.9620   41.7380 O   0  0  0  0  0  0  0  0  0  0  0  0
   51.3300   31.9870   39.9110 O   0  0  0  0  0  0  0  0  0  0  0  0
   46.3232   34.6772   41.0241 H   0  0  0  0  0  0  0  0  0  0  0  0
   48.7994   36.1356   40.9034 H   0  0  0  0  0  0  0  0  0  0  0  0
   48.8264   36.3992   42.4281 H   0  0  0  0  0  0  0  0  0  0  0  0
   48.7770   33.2447   42.4844 H   0  0  0  0  0  0  0  0  0  0  0  0
   43.8512   36.6436   44.4345 H   0  0  0  0  0  0  0  0  0  0  0  0
   45.2251   36.6242   42.2793 H   0  0  0  0  0  0  0  0  0  0  0  0
   45.9139   33.2519   45.8925 H   0  0  0  0  0  0  0  0  0  0  0  0
   49.4594   34.0169   40.1247 H   0  0  0  0  0  0  0  0  0  0  0  0
   50.7868   32.6547   43.1923 H   0  0  0  0  0  0  0  0  0  0  0  0
   49.8979   30.9771   42.7279 H   0  0  0  0  0  0  0  0  0  0  0  0
   52.2267   31.7242   40.2380 H   0  0  0  0  0  0  0  0  0  0  0  0
  1  2  1  0
  1  3  1  0
  1  6  1  0
  2  3  1  0
  4  9  2  0
  5  4  1  0
  6  5  2  0
  6  7  1  0
  7  8  2  0
  8  9  1  0
 10 11  1  0
 10  3  1  0
 11 13  1  0
 11 12  1  0
 14 11  1  0
  1 15  1  6
  2 16  1  0
  2 17  1  0
  3 18  1  1
  4 19  1  0
  5 20  1  0
  8 21  1  0
 10 22  1  0
 12 23  1  0
 13 24  1  0
 14 25  1  0
M  ISO  8  15  13  16  13  17  13  18  13  19  14  20  14  21  14  22   5
M  ISO  3  23   3  24   3  25   3
M  END
>  <minimizedAffinity>  (1) 
-4.51799774

>  <minimizedRMSD>  (1) 
0.702519

$$$$
