
     RDKit          3D

 30 32  0  0  1  0  0  0  0  0999 V2000
   47.8590   35.1050   41.6410 C   0  0  1  0  0  0  0  0  0  0  0  0
   49.2380   35.5380   42.0560 C   0  0  0  0  0  0  0  0  0  0  0  0
   48.9260   34.1910   41.3470 C   0  0  1  0  0  0  0  0  0  0  0  0
   44.9030   35.1520   43.9780 C   0  0  0  0  0  0  0  0  0  0  0  0
   45.7010   35.4970   42.8740 C   0  0  0  0  0  0  0  0  0  0  0  0
   46.9390   34.8390   42.7750 C   0  0  0  0  0  0  0  0  0  0  0  0
   47.2940   33.9230   43.7260 N   0  0  0  0  0  0  0  0  0  0  0  0
   46.5020   33.6230   44.7640 C   0  0  0  0  0  0  0  0  0  0  0  0
   45.3000   34.2400   44.8940 N   0  0  0  0  0  0  0  0  0  0  0  0
   49.4130   33.0340   42.0930 C   0  0  0  0  0  0  0  0  0  0  0  0
   48.8710   31.6960   41.5570 C   0  0  0  0  0  0  0  0  0  0  0  0
   49.6210   30.7750   42.5320 C   0  0  0  0  0  0  0  0  0  0  0  0
   51.0240   31.3920   42.5640 C   0  0  0  0  0  0  0  0  0  0  0  0
   50.8870   32.7520   41.8680 C   0  0  0  0  0  0  0  0  0  0  0  0
   47.0613   35.5098   41.0008 H   0  0  0  0  0  0  0  0  0  0  0  0
   49.7568   36.3467   41.5204 H   0  0  0  0  0  0  0  0  0  0  0  0
   49.7308   35.8581   42.9859 H   0  0  0  0  0  0  0  0  0  0  0  0
   49.0918   33.6268   40.4174 H   0  0  0  0  0  0  0  0  0  0  0  0
   43.9245   35.6392   44.1009 H   0  0  0  0  0  0  0  0  0  0  0  0
   45.3755   36.2392   42.1302 H   0  0  0  0  0  0  0  0  0  0  0  0
   46.8245   32.8797   45.5079 H   0  0  0  0  0  0  0  0  0  0  0  0
   49.1217   33.3014   43.1195 H   0  0  0  0  0  0  0  0  0  0  0  0
   47.7788   31.6148   41.6595 H   0  0  0  0  0  0  0  0  0  0  0  0
   49.0233   31.5010   40.4852 H   0  0  0  0  0  0  0  0  0  0  0  0
   49.1574   30.7911   43.5294 H   0  0  0  0  0  0  0  0  0  0  0  0
   49.6151   29.7181   42.2272 H   0  0  0  0  0  0  0  0  0  0  0  0
   51.3630   31.5234   43.6022 H   0  0  0  0  0  0  0  0  0  0  0  0
   51.7647   30.7499   42.0649 H   0  0  0  0  0  0  0  0  0  0  0  0
   51.1284   32.6856   40.7969 H   0  0  0  0  0  0  0  0  0  0  0  0
   51.5647   33.5305   42.2482 H   0  0  0  0  0  0  0  0  0  0  0  0
  1  2  1  0
  1  6  1  0
  3  1  1  0
  3  2  1  0
  3 10  1  0
  4  9  2  0
  5  4  1  0
  6  5  2  0
  6  7  1  0
  7  8  2  0
  8  9  1  0
 11 10  1  0
 11 12  1  0
 12 13  1  0
 14 10  1  0
 14 13  1  0
  1 15  1  6
  2 16  1  0
  2 17  1  0
  3 18  1  6
  4 19  1  0
  5 20  1  0
  8 21  1  0
 10 22  1  0
 11 23  1  0
 11 24  1  0
 12 25  1  0
 12 26  1  0
 13 27  1  0
 13 28  1  0
 14 29  1  0
 14 30  1  0
M  ISO  8  15  13  16  13  17  13  18  13  19  14  20  14  21  14  22  13
M  ISO  8  23  13  24  13  25  13  26  13  27  13  28  13  29  13  30  13
M  END
>  <minimizedAffinity>  (1) 
-4.39984274

>  <minimizedRMSD>  (1) 
1.14521325

$$$$
