
     RDKit          3D

 19 20  0  0  1  0  0  0  0  0999 V2000
   47.0550   34.7220   41.7680 C   0  0  1  0  0  0  0  0  0  0  0  0
   48.3540   35.4970   41.8040 C   0  0  0  0  0  0  0  0  0  0  0  0
   48.2870   33.9520   41.8650 C   0  0  2  0  0  0  0  0  0  0  0  0
   44.6260   36.0030   44.3480 C   0  0  0  0  0  0  0  0  0  0  0  0
   45.3480   35.9540   43.1420 C   0  0  0  0  0  0  0  0  0  0  0  0
   46.2350   34.8960   43.0200 C   0  0  0  0  0  0  0  0  0  0  0  0
   46.3550   33.9860   44.0440 N   0  0  0  0  0  0  0  0  0  0  0  0
   45.6400   34.0750   45.1830 C   0  0  0  0  0  0  0  0  0  0  0  0
   44.7730   35.0950   45.3260 N   0  0  0  0  0  0  0  0  0  0  0  0
   48.8700   33.2170   40.7180 C   0  0  0  0  0  0  0  0  0  0  0  0
   49.8000   32.4480   40.8700 O   0  0  0  0  0  0  0  0  0  0  0  0
   46.1954   34.6488   41.0855 H   0  0  0  0  0  0  0  0  0  0  0  0
   48.7267   36.0048   40.9022 H   0  0  0  0  0  0  0  0  0  0  0  0
   48.7851   36.3001   42.4198 H   0  0  0  0  0  0  0  0  0  0  0  0
   48.6050   33.1511   42.5486 H   0  0  0  0  0  0  0  0  0  0  0  0
   43.9079   36.8229   44.4968 H   0  0  0  0  0  0  0  0  0  0  0  0
   45.2175   36.7049   42.3489 H   0  0  0  0  0  0  0  0  0  0  0  0
   45.7626   33.3280   45.9811 H   0  0  0  0  0  0  0  0  0  0  0  0
   48.4543   33.3696   39.7111 H   0  0  0  0  0  0  0  0  0  0  0  0
  1  2  1  0
  1  3  1  0
  1  6  1  0
  2  3  1  0
  4  9  2  0
  5  4  1  0
  6  5  2  0
  6  7  1  0
  7  8  2  0
  8  9  1  0
 10 11  2  0
 10  3  1  0
  1 12  1  6
  2 13  1  0
  2 14  1  0
  3 15  1  1
  4 16  1  0
  5 17  1  0
  8 18  1  0
 10 19  1  0
M  ISO  8  12  13  13  13  14  13  15  13  16  14  17  14  18  14  19   6
M  END
>  <minimizedAffinity>  (1) 
-3.91062522

>  <minimizedRMSD>  (1) 
0.185262576

$$$$
