
     RDKit          3D

 19 20  0  0  1  0  0  0  0  0999 V2000
   47.0670   34.5480   41.8370 C   0  0  1  0  0  0  0  0  0  0  0  0
   48.1900   35.5440   41.6710 C   0  0  0  0  0  0  0  0  0  0  0  0
   48.4110   34.0480   42.0210 C   0  0  1  0  0  0  0  0  0  0  0  0
   44.6420   36.0910   44.2550 C   0  0  0  0  0  0  0  0  0  0  0  0
   45.3880   35.9570   43.0750 C   0  0  0  0  0  0  0  0  0  0  0  0
   46.2180   34.8290   43.0430 C   0  0  0  0  0  0  0  0  0  0  0  0
   46.2650   33.9550   44.1020 N   0  0  0  0  0  0  0  0  0  0  0  0
   45.5070   34.1530   45.2160 C   0  0  0  0  0  0  0  0  0  0  0  0
   44.7000   35.2310   45.2710 N   0  0  0  0  0  0  0  0  0  0  0  0
   49.0760   33.8720   43.2650 N   0  0  0  0  0  0  0  0  0  0  0  0
   46.2362   34.1724   41.2216 H   0  0  0  0  0  0  0  0  0  0  0  0
   48.4527   35.9308   40.6753 H   0  0  0  0  0  0  0  0  0  0  0  0
   48.4669   36.5155   42.1063 H   0  0  0  0  0  0  0  0  0  0  0  0
   48.8759   33.1356   41.6191 H   0  0  0  0  0  0  0  0  0  0  0  0
   43.9697   36.9567   44.3471 H   0  0  0  0  0  0  0  0  0  0  0  0
   45.3266   36.6765   42.2452 H   0  0  0  0  0  0  0  0  0  0  0  0
   45.5527   33.4450   46.0567 H   0  0  0  0  0  0  0  0  0  0  0  0
   48.4151   34.0469   44.0354 H   0  0  0  0  0  0  0  0  0  0  0  0
   49.4322   32.9078   43.3305 H   0  0  0  0  0  0  0  0  0  0  0  0
  1  3  1  0
  1  6  1  0
  2  1  1  0
  2  3  1  0
  3 10  1  0
  4  9  2  0
  5  4  1  0
  6  5  2  0
  6  7  1  0
  7  8  2  0
  8  9  1  0
  1 11  1  6
  2 12  1  0
  2 13  1  0
  3 14  1  6
  4 15  1  0
  5 16  1  0
  8 17  1  0
 10 18  1  0
 10 19  1  0
M  ISO  8  11  13  12  13  13  13  14  13  15  14  16  14  17  14  18   5
M  ISO  1  19   5
M  END
>  <minimizedAffinity>  (1) 
-3.90559936

>  <minimizedRMSD>  (1) 
0.266354889

$$$$
