
     RDKit          3D

 20 21  0  0  1  0  0  0  0  0999 V2000
   44.5700   36.0250   44.4640 C   0  0  0  0  0  0  0  0  0  0  0  0
   45.2320   35.9970   43.2250 C   0  0  0  0  0  0  0  0  0  0  0  0
   46.1090   34.9380   43.0360 C   0  0  0  0  0  0  0  0  0  0  0  0
   46.2770   34.0060   44.0340 N   0  0  0  0  0  0  0  0  0  0  0  0
   45.6170   34.0750   45.2110 C   0  0  0  0  0  0  0  0  0  0  0  0
   44.7520   35.1000   45.4230 N   0  0  0  0  0  0  0  0  0  0  0  0
   46.8640   34.7850   41.7480 C   0  0  1  0  0  0  0  0  0  0  0  0
   48.2310   35.4310   41.7970 C   0  0  0  0  0  0  0  0  0  0  0  0
   48.0120   33.8970   41.7200 C   0  0  2  0  0  0  0  0  0  0  0  0
   48.5680   33.2990   40.4630 C   0  0  0  0  0  0  0  0  0  0  0  0
   43.8657   36.8469   44.6599 H   0  0  0  0  0  0  0  0  0  0  0  0
   45.0660   36.7646   42.4548 H   0  0  0  0  0  0  0  0  0  0  0  0
   45.7781   33.3117   45.9865 H   0  0  0  0  0  0  0  0  0  0  0  0
   45.9775   34.8466   41.0997 H   0  0  0  0  0  0  0  0  0  0  0  0
   48.6194   35.9848   40.9296 H   0  0  0  0  0  0  0  0  0  0  0  0
   48.7600   36.1287   42.4628 H   0  0  0  0  0  0  0  0  0  0  0  0
   48.2229   32.9879   42.3023 H   0  0  0  0  0  0  0  0  0  0  0  0
   49.2962   32.5158   40.7205 H   0  0  0  0  0  0  0  0  0  0  0  0
   47.7501   32.8596   39.8730 H   0  0  0  0  0  0  0  0  0  0  0  0
   49.0657   34.0827   39.8730 H   0  0  0  0  0  0  0  0  0  0  0  0
  1  6  2  0
  2  1  1  0
  3  2  2  0
  3  4  1  0
  4  5  2  0
  5  6  1  0
  7  8  1  0
  7  3  1  0
  9  7  1  0
  9  8  1  0
 10  9  1  0
  1 11  1  0
  2 12  1  0
  5 13  1  0
  7 14  1  6
  8 15  1  0
  8 16  1  0
  9 17  1  1
 10 18  1  0
 10 19  1  0
 10 20  1  0
M  ISO  8  11  14  12  14  13  14  14  13  15  13  16  13  17  13  18   8
M  ISO  2  19   8  20   8
M  END
>  <minimizedAffinity>  (1) 
-3.90057588

>  <minimizedRMSD>  (1) 
0.223119169

$$$$
