
     RDKit          3D

 33 35  0  0  1  0  0  0  0  0999 V2000
   48.2110   35.5910   42.0510 C   0  0  1  0  0  0  0  0  0  0  0  0
   49.4590   34.8110   41.8680 C   0  0  0  0  0  0  0  0  0  0  0  0
   48.5760   35.1870   40.6870 C   0  0  1  0  0  0  0  0  0  0  0  0
   46.2540   33.0420   44.0470 C   0  0  0  0  0  0  0  0  0  0  0  0
   47.3490   33.7070   43.4750 C   0  0  0  0  0  0  0  0  0  0  0  0
   47.0930   34.8420   42.6940 C   0  0  0  0  0  0  0  0  0  0  0  0
   45.8020   35.2450   42.5240 N   0  0  0  0  0  0  0  0  0  0  0  0
   44.7640   34.5830   43.0870 C   0  0  0  0  0  0  0  0  0  0  0  0
   45.0010   33.4840   43.8470 N   0  0  0  0  0  0  0  0  0  0  0  0
   47.7860   34.3080   40.0530 O   0  0  0  0  0  0  0  0  0  0  0  0
   49.0430   32.5300   38.5360 O   0  0  0  0  0  0  0  0  0  0  0  0
   48.2070   33.7900   38.5560 P   0  0  2  0  0  0  0  0  0  0  0  0
   49.0360   34.9310   37.6310 O   0  0  0  0  0  0  0  0  0  0  0  0
   46.8050   33.3930   37.6940 O   0  0  0  0  0  0  0  0  0  0  0  0
   45.4050   31.1510   38.2050 F   0  0  0  0  0  0  0  0  0  0  0  0
   46.1240   31.3180   37.0530 C   0  0  0  0  0  0  0  0  0  0  0  0
   46.8820   32.4370   36.6900 C   0  0  0  0  0  0  0  0  0  0  0  0
   47.5450   32.4430   35.4980 C   0  0  0  0  0  0  0  0  0  0  0  0
   47.4620   31.3490   34.6590 C   0  0  0  0  0  0  0  0  0  0  0  0
   46.7160   30.2450   35.0140 C   0  0  0  0  0  0  0  0  0  0  0  0
   46.0340   30.2070   36.2130 C   0  0  0  0  0  0  0  0  0  0  0  0
   47.9585   36.5575   42.5116 H   0  0  0  0  0  0  0  0  0  0  0  0
   50.4385   35.2930   42.0031 H   0  0  0  0  0  0  0  0  0  0  0  0
   49.8692   33.8759   42.2771 H   0  0  0  0  0  0  0  0  0  0  0  0
   48.7773   35.6777   39.7233 H   0  0  0  0  0  0  0  0  0  0  0  0
   46.4232   32.1487   44.6662 H   0  0  0  0  0  0  0  0  0  0  0  0
   48.3766   33.3485   43.6347 H   0  0  0  0  0  0  0  0  0  0  0  0
   43.7336   34.9342   42.9292 H   0  0  0  0  0  0  0  0  0  0  0  0
   49.4991   35.5684   38.2305 H   0  0  0  0  0  0  0  0  0  0  0  0
   48.1447   33.3175   35.2054 H   0  0  0  0  0  0  0  0  0  0  0  0
   47.9965   31.3585   33.6977 H   0  0  0  0  0  0  0  0  0  0  0  0
   46.6639   29.3832   34.3324 H   0  0  0  0  0  0  0  0  0  0  0  0
   45.4375   29.3278   36.4981 H   0  0  0  0  0  0  0  0  0  0  0  0
  1  6  1  0
  2  1  1  0
  3  2  1  0
  3  1  1  0
  5  4  2  0
  6  5  1  0
  7  6  2  0
  7  8  1  0
  8  9  2  0
  9  4  1  0
 10  3  1  0
 12 11  2  0
 12 10  1  0
 13 12  1  0
 14 12  1  0
 16 15  1  0
 17 16  2  0
 17 14  1  0
 18 17  1  0
 19 20  1  0
 19 18  2  0
 20 21  2  0
 21 16  1  0
  1 22  1  6
  2 23  1  0
  2 24  1  0
  3 25  1  6
  4 26  1  0
  5 27  1  0
  8 28  1  0
 13 29  1  0
 18 30  1  0
 19 31  1  0
 20 32  1  0
 21 33  1  0
M  ISO  8  22  13  23  13  24  13  25  13  26  14  27  14  28  14  29   3
M  ISO  4  30  14  31  14  32  14  33  14
M  END
>  <minimizedAffinity>  (1) 
-4.46487045

>  <minimizedRMSD>  (1) 
2.07659936

$$$$
