
     RDKit          3D

 25 26  0  0  1  0  0  0  0  0999 V2000
   48.1970   35.5920   42.0470 C   0  0  1  0  0  0  0  0  0  0  0  0
   49.4690   34.8410   41.8980 C   0  0  0  0  0  0  0  0  0  0  0  0
   48.5890   35.1510   40.6950 C   0  0  1  0  0  0  0  0  0  0  0  0
   46.2810   33.0630   44.0840 C   0  0  0  0  0  0  0  0  0  0  0  0
   47.3620   33.7360   43.4980 C   0  0  0  0  0  0  0  0  0  0  0  0
   47.0840   34.8430   42.7020 C   0  0  0  0  0  0  0  0  0  0  0  0
   45.7910   35.2290   42.5220 N   0  0  0  0  0  0  0  0  0  0  0  0
   44.7660   34.5590   43.1010 C   0  0  0  0  0  0  0  0  0  0  0  0
   45.0170   33.4730   43.8840 N   0  0  0  0  0  0  0  0  0  0  0  0
   47.8310   34.2310   40.0870 O   0  0  0  0  0  0  0  0  0  0  0  0
   48.9920   32.5140   38.4300 O   0  0  0  0  0  0  0  0  0  0  0  0
   48.1810   33.7850   38.5470 P   0  0  2  0  0  0  0  0  0  0  0  0
   49.0080   34.9710   37.6600 O   0  0  0  0  0  0  0  0  0  0  0  0
   46.7420   33.4770   37.7110 O   0  0  0  0  0  0  0  0  0  0  0  0
   45.6130   32.9100   38.3170 C   0  0  0  0  0  0  0  0  0  0  0  0
   44.5690   33.2990   37.6890 O   0  0  0  0  0  0  0  0  0  0  0  0
   47.9164   36.5646   42.4774 H   0  0  0  0  0  0  0  0  0  0  0  0
   50.4333   35.3548   42.0254 H   0  0  0  0  0  0  0  0  0  0  0  0
   49.9005   33.9316   42.3417 H   0  0  0  0  0  0  0  0  0  0  0  0
   48.7875   35.6135   39.7169 H   0  0  0  0  0  0  0  0  0  0  0  0
   46.4706   32.1845   44.7182 H   0  0  0  0  0  0  0  0  0  0  0  0
   48.3965   33.4000   43.6621 H   0  0  0  0  0  0  0  0  0  0  0  0
   43.7303   34.8921   42.9388 H   0  0  0  0  0  0  0  0  0  0  0  0
   49.4481   35.6021   38.2830 H   0  0  0  0  0  0  0  0  0  0  0  0
   45.6230   32.2403   39.1896 H   0  0  0  0  0  0  0  0  0  0  0  0
  1  6  1  0
  2  1  1  0
  3  2  1  0
  3  1  1  0
  5  4  2  0
  6  5  1  0
  7  6  2  0
  7  8  1  0
  8  9  2  0
  9  4  1  0
 10  3  1  0
 12 11  2  0
 12 10  1  0
 13 12  1  0
 14 15  1  0
 14 12  1  0
 16 15  2  0
  1 17  1  6
  2 18  1  0
  2 19  1  0
  3 20  1  6
  4 21  1  0
  5 22  1  0
  8 23  1  0
 13 24  1  0
 15 25  1  0
M  ISO  8  17  13  18  13  19  13  20  13  21  14  22  14  23  14  24   3
M  ISO  1  25   6
M  END
>  <minimizedAffinity>  (1) 
-3.99778008

>  <minimizedRMSD>  (1) 
0.525894105

$$$$
