
     RDKit          3D

 49 53  0  0  1  0  0  0  0  0999 V2000
   49.8020   32.7060   41.6310 C   0  0  0  0  0  0  0  0  0  0  0  0
   51.1770   32.4340   41.7700 C   0  0  0  0  0  0  0  0  0  0  0  0
   51.8910   31.7850   40.7510 C   0  0  0  0  0  0  0  0  0  0  0  0
   51.1760   31.4530   39.6610 N   0  0  0  0  0  0  0  0  0  0  0  0
   49.8550   31.7180   39.5360 C   0  0  0  0  0  0  0  0  0  0  0  0
   49.1920   32.3340   40.5110 N   0  0  0  0  0  0  0  0  0  0  0  0
   49.0930   31.3470   38.2920 C   0  0  2  0  0  0  0  0  0  0  0  0
   49.5750   31.7300   36.9700 C   0  0  0  0  0  0  0  0  0  0  0  0
   48.3950   32.4640   37.5230 C   0  0  1  0  0  0  0  0  0  0  0  0
   47.1750   32.2250   36.8240 N   0  0  0  0  0  0  0  0  0  0  0  0
   45.9920   32.6530   37.3490 C   0  0  0  0  0  0  0  0  0  0  0  0
   45.0080   32.3050   36.5020 N   0  0  0  0  0  0  0  0  0  0  0  0
   45.5740   31.6660   35.4620 C   0  0  0  0  0  0  0  0  0  0  0  0
   44.9810   31.1190   34.3390 C   0  0  0  0  0  0  0  0  0  0  0  0
   45.8210   30.5330   33.4530 N   0  0  0  0  0  0  0  0  0  0  0  0
   47.1660   30.4930   33.6700 C   0  0  0  0  0  0  0  0  0  0  0  0
   47.7470   31.0330   34.7800 N   0  0  0  0  0  0  0  0  0  0  0  0
   46.9410   31.6190   35.6720 C   0  0  0  0  0  0  0  0  0  0  0  0
   43.5790   31.1690   34.1270 N   0  0  0  0  0  0  0  0  0  0  0  0
   49.1410   33.3890   42.7370 C   0  0  0  0  0  0  0  0  0  0  0  0
   47.9100   32.9970   43.0540 C   0  0  0  0  0  0  0  0  0  0  0  0
   47.1420   33.6160   44.1560 C   0  0  0  0  0  0  0  0  0  0  0  0
   44.7450   36.2080   43.4460 C   0  0  1  0  0  0  0  0  0  0  0  0
   45.9460   35.4250   42.9120 C   0  0  0  0  0  0  0  0  0  0  0  0
   45.8050   34.1620   43.6790 C   0  0  2  0  0  0  0  0  0  0  0  0
   44.9400   34.3680   44.7220 O   0  0  0  0  0  0  0  0  0  0  0  0
   44.6920   35.7000   44.8690 C   0  0  0  0  0  0  0  0  0  0  0  0
   44.9790   37.5640   43.3660 O   0  0  0  0  0  0  0  0  0  0  0  0
   51.6987   32.7346   42.6906 H   0  0  0  0  0  0  0  0  0  0  0  0
   52.9647   31.5624   40.8379 H   0  0  0  0  0  0  0  0  0  0  0  0
   48.8001   30.3877   38.7435 H   0  0  0  0  0  0  0  0  0  0  0  0
   49.4395   31.0431   36.1216 H   0  0  0  0  0  0  0  0  0  0  0  0
   50.5523   32.0417   36.5728 H   0  0  0  0  0  0  0  0  0  0  0  0
   48.1058   33.4922   37.7859 H   0  0  0  0  0  0  0  0  0  0  0  0
   45.8648   33.1899   38.3006 H   0  0  0  0  0  0  0  0  0  0  0  0
   47.8080   30.0064   32.9210 H   0  0  0  0  0  0  0  0  0  0  0  0
   43.1712   30.7510   33.2786 H   0  0  0  0  0  0  0  0  0  0  0  0
   42.9690   31.6233   34.8215 H   0  0  0  0  0  0  0  0  0  0  0  0
   49.6418   34.1983   43.2886 H   0  0  0  0  0  0  0  0  0  0  0  0
   47.4469   32.1837   42.4761 H   0  0  0  0  0  0  0  0  0  0  0  0
   46.9601   32.8581   44.9322 H   0  0  0  0  0  0  0  0  0  0  0  0
   47.7314   34.4560   44.5523 H   0  0  0  0  0  0  0  0  0  0  0  0
   43.8015   36.0685   42.8980 H   0  0  0  0  0  0  0  0  0  0  0  0
   45.8699   35.2531   41.8282 H   0  0  0  0  0  0  0  0  0  0  0  0
   46.9152   35.9308   43.0340 H   0  0  0  0  0  0  0  0  0  0  0  0
   45.3937   33.3918   43.0099 H   0  0  0  0  0  0  0  0  0  0  0  0
   45.4620   36.1805   45.4904 H   0  0  0  0  0  0  0  0  0  0  0  0
   43.7376   35.9129   45.3728 H   0  0  0  0  0  0  0  0  0  0  0  0
   45.0442   37.9420   44.2787 H   0  0  0  0  0  0  0  0  0  0  0  0
  1  2  2  0
  1 20  1  0
  3  2  1  0
  4  3  2  0
  5  4  1  0
  5  6  2  0
  6  1  1  0
  7  5  1  0
  8  9  1  0
  8  7  1  0
  9  7  1  0
 10 11  1  0
 10  9  1  0
 12 11  2  0
 13 18  2  0
 13 12  1  0
 14 13  1  0
 15 16  1  0
 15 14  2  0
 16 17  2  0
 17 18  1  0
 18 10  1  0
 19 14  1  0
 20 21  2  0
 21 22  1  0
 23 27  1  0
 24 23  1  0
 24 25  1  0
 25 22  1  0
 25 26  1  0
 26 27  1  0
 28 23  1  0
  2 29  1  0
  3 30  1  0
  7 31  1  6
  8 32  1  0
  8 33  1  0
  9 34  1  1
 11 35  1  0
 16 36  1  0
 19 37  1  0
 19 38  1  0
 20 39  1  0
 21 40  1  0
 22 41  1  0
 22 42  1  0
 23 43  1  6
 24 44  1  0
 24 45  1  0
 25 46  1  6
 27 47  1  0
 27 48  1  0
 28 49  1  0
M  ISO  8  29  14  30  14  31  13  32  13  33  13  34  13  35  14  36  14
M  ISO  8  41   8  42   8  43  13  44  13  45  13  46  13  47  13  48  13
M  ISO  1  49   3
M  END
>  <minimizedAffinity>  (1) 
-6.14416409

>  <minimizedRMSD>  (1) 
1.23498297

$$$$
