
     RDKit          3D

 42 45  0  0  1  0  0  0  0  0999 V2000
   48.9380   32.5560   38.5250 O   0  0  0  0  0  0  0  0  0  0  0  0
   48.0930   33.8300   38.5750 P   0  0  2  0  0  0  0  0  0  0  0  0
   48.9320   34.9660   37.6520 O   0  0  0  0  0  0  0  0  0  0  0  0
   47.7600   34.2900   40.1110 O   0  0  0  0  0  0  0  0  0  0  0  0
   48.3020   35.5850   42.0820 C   0  0  1  0  0  0  0  0  0  0  0  0
   49.5100   34.7860   41.8350 C   0  0  0  0  0  0  0  0  0  0  0  0
   48.5630   35.2040   40.6960 C   0  0  1  0  0  0  0  0  0  0  0  0
   46.3850   32.9550   44.0190 C   0  0  0  0  0  0  0  0  0  0  0  0
   47.4420   33.6090   43.3930 C   0  0  0  0  0  0  0  0  0  0  0  0
   47.1930   34.8500   42.7760 C   0  0  0  0  0  0  0  0  0  0  0  0
   45.9310   35.3690   42.8100 N   0  0  0  0  0  0  0  0  0  0  0  0
   44.9260   34.7020   43.4290 C   0  0  0  0  0  0  0  0  0  0  0  0
   45.1520   33.4990   44.0310 N   0  0  0  0  0  0  0  0  0  0  0  0
   46.6860   33.4410   37.7480 O   0  0  0  0  0  0  0  0  0  0  0  0
   45.6600   32.6540   38.2680 C   0  0  0  0  0  0  0  0  0  0  0  0
   45.7400   31.3250   38.6490 C   0  0  0  0  0  0  0  0  0  0  0  0
   44.6280   30.6860   39.1480 C   0  0  0  0  0  0  0  0  0  0  0  0
   43.4420   31.3560   39.2690 C   0  0  0  0  0  0  0  0  0  0  0  0
   43.4030   32.6920   38.8740 C   0  0  0  0  0  0  0  0  0  0  0  0
   44.5070   33.3110   38.3850 N   0  0  0  0  0  0  0  0  0  0  0  0
   42.9490   35.2810   40.6530 Cl  0  0  0  0  0  0  0  0  0  0  0  0
   41.7730   34.4900   39.6360 C   0  0  0  0  0  0  0  0  0  0  0  0
   42.1340   33.3920   38.9280 C   0  0  0  0  0  0  0  0  0  0  0  0
   41.1370   32.8820   38.1220 C   0  0  0  0  0  0  0  0  0  0  0  0
   39.8790   33.4430   38.0470 C   0  0  0  0  0  0  0  0  0  0  0  0
   39.5560   34.5600   38.7900 C   0  0  0  0  0  0  0  0  0  0  0  0
   40.5430   35.1080   39.6180 C   0  0  0  0  0  0  0  0  0  0  0  0
   40.1850   36.5260   40.5800 Cl  0  0  0  0  0  0  0  0  0  0  0  0
   49.3995   35.5990   38.2528 H   0  0  0  0  0  0  0  0  0  0  0  0
   48.1066   36.5511   42.5704 H   0  0  0  0  0  0  0  0  0  0  0  0
   50.5063   35.2434   41.9249 H   0  0  0  0  0  0  0  0  0  0  0  0
   49.9196   33.8375   42.2126 H   0  0  0  0  0  0  0  0  0  0  0  0
   48.6838   35.7294   39.7371 H   0  0  0  0  0  0  0  0  0  0  0  0
   46.5575   31.9851   44.5085 H   0  0  0  0  0  0  0  0  0  0  0  0
   48.4490   33.1665   43.3805 H   0  0  0  0  0  0  0  0  0  0  0  0
   43.9156   35.1364   43.4460 H   0  0  0  0  0  0  0  0  0  0  0  0
   46.6911   30.7808   38.5529 H   0  0  0  0  0  0  0  0  0  0  0  0
   44.6935   29.6306   39.4512 H   0  0  0  0  0  0  0  0  0  0  0  0
   42.5463   30.8558   39.6659 H   0  0  0  0  0  0  0  0  0  0  0  0
   41.3543   31.9913   37.5142 H   0  0  0  0  0  0  0  0  0  0  0  0
   39.1231   32.9939   37.3860 H   0  0  0  0  0  0  0  0  0  0  0  0
   38.5524   35.0068   38.7334 H   0  0  0  0  0  0  0  0  0  0  0  0
  2  1  2  0
  2  4  1  0
  3  2  1  0
  4  7  1  0
  5 10  1  0
  6  5  1  0
  7  6  1  0
  7  5  1  0
  8 13  2  0
  9  8  1  0
 10 11  1  0
 10  9  2  0
 11 12  2  0
 12 13  1  0
 14 15  1  0
 14  2  1  0
 15 20  1  0
 15 16  2  0
 16 17  1  0
 17 18  2  0
 19 23  1  0
 19 18  1  0
 20 19  2  0
 22 21  1  0
 23 22  2  0
 24 23  1  0
 25 24  2  0
 25 26  1  0
 26 27  2  0
 27 22  1  0
 27 28  1  0
  3 29  1  0
  5 30  1  6
  6 31  1  0
  6 32  1  0
  7 33  1  6
  8 34  1  0
  9 35  1  0
 12 36  1  0
 16 37  1  0
 17 38  1  0
 18 39  1  0
 24 40  1  0
 25 41  1  0
 26 42  1  0
M  ISO  8  29   3  30  13  31  13  32  13  33  13  34  14  35  14  36  14
M  ISO  6  37  14  38  14  39  14  40  14  41  14  42  14
M  END
>  <minimizedAffinity>  (1) 
-6.33638573

>  <minimizedRMSD>  (1) 
1.92986226

$$$$
