
     RDKit          3D

 52 55  0  0  1  0  0  0  0  0999 V2000
   49.2620   31.8750   41.5900 C   0  0  0  0  0  0  0  0  0  0  0  0
   50.6430   31.8390   41.9100 C   0  0  0  0  0  0  0  0  0  0  0  0
   51.5980   31.6840   40.8990 C   0  0  0  0  0  0  0  0  0  0  0  0
   51.1120   31.5750   39.6450 N   0  0  0  0  0  0  0  0  0  0  0  0
   49.7910   31.6100   39.3540 C   0  0  0  0  0  0  0  0  0  0  0  0
   48.9030   31.7580   40.3150 N   0  0  0  0  0  0  0  0  0  0  0  0
   49.3050   31.4970   37.9350 C   0  0  2  0  0  0  0  0  0  0  0  0
   50.2270   31.2900   36.8220 C   0  0  0  0  0  0  0  0  0  0  0  0
   49.6310   32.6330   36.9710 C   0  0  1  0  0  0  0  0  0  0  0  0
   48.3010   32.4060   34.8250 C   0  0  1  0  0  0  0  0  0  0  0  0
   48.5950   33.1770   36.0530 C   0  0  1  0  0  0  0  0  0  0  0  0
   47.3630   33.4590   36.8940 C   0  0  0  0  0  0  0  0  0  0  0  0
   46.4760   32.3970   36.9490 O   0  0  0  0  0  0  0  0  0  0  0  0
   45.9700   32.2140   35.6630 C   0  0  0  0  0  0  0  0  0  0  0  0
   47.0750   31.5240   34.8900 C   0  0  1  0  0  0  0  0  0  0  0  0
   48.0390   33.2880   33.7470 O   0  0  0  0  0  0  0  0  0  0  0  0
   46.6360   31.2950   33.5760 O   0  0  0  0  0  0  0  0  0  0  0  0
   48.3210   32.0430   42.6920 C   0  0  0  0  0  0  0  0  0  0  0  0
   48.0320   33.2780   43.0830 C   0  0  0  0  0  0  0  0  0  0  0  0
   47.0950   33.5590   44.1860 C   0  0  0  0  0  0  0  0  0  0  0  0
   44.7710   36.2030   43.4080 C   0  0  1  0  0  0  0  0  0  0  0  0
   45.9580   35.3820   42.8920 C   0  0  0  0  0  0  0  0  0  0  0  0
   45.7870   34.1390   43.6810 C   0  0  2  0  0  0  0  0  0  0  0  0
   44.9140   34.3820   44.7110 O   0  0  0  0  0  0  0  0  0  0  0  0
   44.7090   35.7270   44.8410 C   0  0  0  0  0  0  0  0  0  0  0  0
   45.0410   37.5560   43.3070 O   0  0  0  0  0  0  0  0  0  0  0  0
   50.9650   31.9333   42.9576 H   0  0  0  0  0  0  0  0  0  0  0  0
   52.6765   31.6530   41.1130 H   0  0  0  0  0  0  0  0  0  0  0  0
   48.4026   30.9732   38.2833 H   0  0  0  0  0  0  0  0  0  0  0  0
   49.9246   30.6526   35.9781 H   0  0  0  0  0  0  0  0  0  0  0  0
   51.2595   30.9182   36.7464 H   0  0  0  0  0  0  0  0  0  0  0  0
   50.0328   33.6547   37.0392 H   0  0  0  0  0  0  0  0  0  0  0  0
   49.1952   31.7778   34.6989 H   0  0  0  0  0  0  0  0  0  0  0  0
   49.0055   34.0946   35.6064 H   0  0  0  0  0  0  0  0  0  0  0  0
   47.6873   33.6950   37.9183 H   0  0  0  0  0  0  0  0  0  0  0  0
   46.8332   34.2984   36.4199 H   0  0  0  0  0  0  0  0  0  0  0  0
   45.0684   31.5844   35.6902 H   0  0  0  0  0  0  0  0  0  0  0  0
   45.6798   33.1678   35.1982 H   0  0  0  0  0  0  0  0  0  0  0  0
   47.3243   30.5793   35.3953 H   0  0  0  0  0  0  0  0  0  0  0  0
   47.7758   34.1739   34.1020 H   0  0  0  0  0  0  0  0  0  0  0  0
   45.7584   30.8372   33.5963 H   0  0  0  0  0  0  0  0  0  0  0  0
   47.8644   31.1718   43.1844 H   0  0  0  0  0  0  0  0  0  0  0  0
   48.5092   34.1230   42.5650 H   0  0  0  0  0  0  0  0  0  0  0  0
   46.8853   32.6218   44.7224 H   0  0  0  0  0  0  0  0  0  0  0  0
   47.5628   34.2995   44.8514 H   0  0  0  0  0  0  0  0  0  0  0  0
   43.8261   36.0733   42.8600 H   0  0  0  0  0  0  0  0  0  0  0  0
   45.8813   35.1913   41.8114 H   0  0  0  0  0  0  0  0  0  0  0  0
   46.9378   35.8684   43.0078 H   0  0  0  0  0  0  0  0  0  0  0  0
   45.3731   33.3702   43.0120 H   0  0  0  0  0  0  0  0  0  0  0  0
   45.4977   36.1930   45.4499 H   0  0  0  0  0  0  0  0  0  0  0  0
   43.7672   35.9816   45.3490 H   0  0  0  0  0  0  0  0  0  0  0  0
   45.1187   37.9456   44.2138 H   0  0  0  0  0  0  0  0  0  0  0  0
  1  2  2  0
  1 18  1  0
  3  2  1  0
  4  3  2  0
  5  4  1  0
  5  6  2  0
  6  1  1  0
  7  5  1  0
  8  9  1  0
  8  7  1  0
  9  7  1  0
 10 16  1  0
 10 15  1  0
 10 11  1  0
 11 12  1  0
 11  9  1  0
 12 13  1  0
 14 13  1  0
 15 17  1  0
 15 14  1  0
 18 19  2  0
 19 20  1  0
 21 25  1  0
 22 21  1  0
 22 23  1  0
 23 20  1  0
 23 24  1  0
 24 25  1  0
 26 21  1  0
  2 27  1  0
  3 28  1  0
  7 29  1  1
  8 30  1  0
  8 31  1  0
  9 32  1  1
 10 33  1  6
 11 34  1  6
 12 35  1  0
 12 36  1  0
 14 37  1  0
 14 38  1  0
 15 39  1  1
 16 40  1  0
 17 41  1  0
 18 42  1  0
 19 43  1  0
 20 44  1  0
 20 45  1  0
 21 46  1  6
 22 47  1  0
 22 48  1  0
 23 49  1  6
 25 50  1  0
 25 51  1  0
 26 52  1  0
M  ISO  8  27  14  28  14  29  13  30  13  31  13  32  13  33  13  34  13
M  ISO  8  35  13  36  13  37  13  38  13  39  13  40   3  41   3  44   8
M  ISO  8  45   8  46  13  47  13  48  13  49  13  50  13  51  13  52   3
M  END
>  <minimizedAffinity>  (1) 
-5.7196002

>  <minimizedRMSD>  (1) 
0.495073289

$$$$
