
     RDKit          3D

 28 30  0  0  0  0  0  0  0  0999 V2000
   47.1780   34.7820   41.9900 C   0  0  0  0  0  0  0  0  0  0  0  0
   48.3220   35.3310   41.8810 O   0  0  0  0  0  0  0  0  0  0  0  0
   46.4810   33.9910   40.9580 C   0  0  0  0  0  0  0  0  0  0  0  0
   45.3120   33.2810   41.2420 C   0  0  0  0  0  0  0  0  0  0  0  0
   44.6240   32.5250   40.3280 C   0  0  0  0  0  0  0  0  0  0  0  0
   45.1100   32.4520   39.0410 C   0  0  0  0  0  0  0  0  0  0  0  0
   46.2570   33.1310   38.7080 C   0  0  0  0  0  0  0  0  0  0  0  0
   46.7520   33.0610   37.4050 C   0  0  0  0  0  0  0  0  0  0  0  0
   47.9000   33.7300   37.0280 C   0  0  0  0  0  0  0  0  0  0  0  0
   48.5530   34.4790   37.9940 C   0  0  0  0  0  0  0  0  0  0  0  0
   48.0330   34.5200   39.2640 C   0  0  0  0  0  0  0  0  0  0  0  0
   46.9000   33.8740   39.6770 C   0  0  0  0  0  0  0  0  0  0  0  0
   44.6130   35.9650   44.3660 C   0  0  0  0  0  0  0  0  0  0  0  0
   45.4390   35.8830   43.2200 C   0  0  0  0  0  0  0  0  0  0  0  0
   46.3530   34.8440   43.1690 C   0  0  0  0  0  0  0  0  0  0  0  0
   46.4340   33.9580   44.1870 N   0  0  0  0  0  0  0  0  0  0  0  0
   45.6260   34.0630   45.2780 C   0  0  0  0  0  0  0  0  0  0  0  0
   44.7080   35.0710   45.3710 N   0  0  0  0  0  0  0  0  0  0  0  0
   44.9170   33.3318   42.2674 H   0  0  0  0  0  0  0  0  0  0  0  0
   43.7068   31.9901   40.6153 H   0  0  0  0  0  0  0  0  0  0  0  0
   44.5825   31.8532   38.2839 H   0  0  0  0  0  0  0  0  0  0  0  0
   46.2140   32.4575   36.6591 H   0  0  0  0  0  0  0  0  0  0  0  0
   48.2822   33.6705   35.9982 H   0  0  0  0  0  0  0  0  0  0  0  0
   49.4720   35.0311   37.7475 H   0  0  0  0  0  0  0  0  0  0  0  0
   48.5717   35.1217   40.0108 H   0  0  0  0  0  0  0  0  0  0  0  0
   43.8754   36.7778   44.4388 H   0  0  0  0  0  0  0  0  0  0  0  0
   45.3583   36.6149   42.4028 H   0  0  0  0  0  0  0  0  0  0  0  0
   45.7131   33.3290   46.0927 H   0  0  0  0  0  0  0  0  0  0  0  0
  1 15  1  0
  2  1  2  0
  3  4  2  0
  3  1  1  0
  5  4  1  0
  6  5  2  0
  7  6  1  0
  7 12  2  0
  8  7  1  0
  9  8  2  0
  9 10  1  0
 10 11  2  0
 11 12  1  0
 12  3  1  0
 13 18  2  0
 14 13  1  0
 15 14  2  0
 15 16  1  0
 16 17  2  0
 17 18  1  0
  4 19  1  0
  5 20  1  0
  6 21  1  0
  8 22  1  0
  9 23  1  0
 10 24  1  0
 11 25  1  0
 13 26  1  0
 14 27  1  0
 17 28  1  0
M  ISO  8  19  14  20  14  21  14  22  14  23  14  24  14  25  14  26  14
M  ISO  2  27  14  28  14
M  END
>  <minimizedAffinity>  (1) 
-5.19360924

>  <minimizedRMSD>  (1) 
0.706835628

$$$$
