
     RDKit          3D

 42 44  0  0  1  0  0  0  0  0999 V2000
   49.5040   32.6970   41.0830 C   0  0  0  0  0  0  0  0  0  0  0  0
   50.8300   32.2150   41.1600 C   0  0  0  0  0  0  0  0  0  0  0  0
   51.3920   31.5290   40.0830 C   0  0  0  0  0  0  0  0  0  0  0  0
   50.5990   31.3680   39.0060 N   0  0  0  0  0  0  0  0  0  0  0  0
   49.3290   31.8320   38.9370 C   0  0  0  0  0  0  0  0  0  0  0  0
   48.8090   32.4830   39.9690 N   0  0  0  0  0  0  0  0  0  0  0  0
   48.4850   31.6380   37.7110 C   0  0  2  0  0  0  0  0  0  0  0  0
   48.9080   30.7490   36.6330 C   0  0  0  0  0  0  0  0  0  0  0  0
   48.9950   32.2230   36.3980 C   0  0  1  0  0  0  0  0  0  0  0  0
   48.1220   32.7170   35.4690 O   0  0  0  0  0  0  0  0  0  0  0  0
   49.8410   32.1100   33.5200 O   0  0  0  0  0  0  0  0  0  0  0  0
   48.3910   32.2740   33.8900 P   0  0  0  0  0  0  0  0  0  0  0  0
   47.5930   30.7890   33.6140 O   0  0  0  0  0  0  0  0  0  0  0  0
   47.6110   33.4190   32.8930 O   0  0  0  0  0  0  0  0  0  0  0  0
   48.9690   33.4120   42.2450 C   0  0  0  0  0  0  0  0  0  0  0  0
   47.8840   32.9040   42.8310 C   0  0  0  0  0  0  0  0  0  0  0  0
   47.2590   33.5420   44.0110 C   0  0  0  0  0  0  0  0  0  0  0  0
   44.6530   36.0230   43.8080 C   0  0  1  0  0  0  0  0  0  0  0  0
   45.8450   35.3850   43.0880 C   0  0  0  0  0  0  0  0  0  0  0  0
   45.8490   34.0410   43.7090 C   0  0  2  0  0  0  0  0  0  0  0  0
   45.0680   34.0680   44.8350 O   0  0  0  0  0  0  0  0  0  0  0  0
   44.7570   35.3560   45.1570 C   0  0  0  0  0  0  0  0  0  0  0  0
   44.8080   37.3960   43.8740 O   0  0  0  0  0  0  0  0  0  0  0  0
   51.4214   32.3813   42.0725 H   0  0  0  0  0  0  0  0  0  0  0  0
   52.4215   31.1425   40.1116 H   0  0  0  0  0  0  0  0  0  0  0  0
   47.5688   31.7122   38.3153 H   0  0  0  0  0  0  0  0  0  0  0  0
   49.8307   30.1604   36.7437 H   0  0  0  0  0  0  0  0  0  0  0  0
   48.4305   29.9157   36.0968 H   0  0  0  0  0  0  0  0  0  0  0  0
   49.7607   32.9716   36.1466 H   0  0  0  0  0  0  0  0  0  0  0  0
   47.3675   30.3693   34.4818 H   0  0  0  0  0  0  0  0  0  0  0  0
   47.1533   34.0909   33.4579 H   0  0  0  0  0  0  0  0  0  0  0  0
   49.4435   34.3312   42.6190 H   0  0  0  0  0  0  0  0  0  0  0  0
   47.4403   31.9830   42.4250 H   0  0  0  0  0  0  0  0  0  0  0  0
   47.2086   32.8068   44.8276 H   0  0  0  0  0  0  0  0  0  0  0  0
   47.8736   34.4090   44.2948 H   0  0  0  0  0  0  0  0  0  0  0  0
   43.6737   35.8863   43.3261 H   0  0  0  0  0  0  0  0  0  0  0  0
   46.7797   35.9284   43.2904 H   0  0  0  0  0  0  0  0  0  0  0  0
   45.7691   35.3822   41.9906 H   0  0  0  0  0  0  0  0  0  0  0  0
   45.4281   33.3221   42.9906 H   0  0  0  0  0  0  0  0  0  0  0  0
   45.5503   35.8147   45.7655 H   0  0  0  0  0  0  0  0  0  0  0  0
   43.8401   35.4449   45.7582 H   0  0  0  0  0  0  0  0  0  0  0  0
   44.8400   37.6793   44.8221 H   0  0  0  0  0  0  0  0  0  0  0  0
  1  2  2  0
  1 15  1  0
  3  2  1  0
  4  3  2  0
  5  4  1  0
  5  6  2  0
  6  1  1  0
  7  5  1  0
  8  7  1  0
  9  8  1  0
  9  7  1  0
 10  9  1  0
 11 12  2  0
 12 10  1  0
 13 12  1  0
 14 12  1  0
 15 16  2  0
 16 17  1  0
 18 23  1  0
 18 22  1  0
 19 20  1  0
 19 18  1  0
 20 17  1  0
 20 21  1  0
 21 22  1  0
  2 24  1  0
  3 25  1  0
  7 26  1  1
  8 27  1  0
  8 28  1  0
  9 29  1  1
 13 30  1  0
 14 31  1  0
 15 32  1  0
 16 33  1  0
 17 34  1  0
 17 35  1  0
 18 36  1  6
 19 37  1  0
 19 38  1  0
 20 39  1  6
 22 40  1  0
 22 41  1  0
 23 42  1  0
M  ISO  8  24  14  25  14  26  13  27  13  28  13  29  13  30   3  31   3
M  ISO  8  34   8  35   8  36  13  37  13  38  13  39  13  40  13  41  13
M  ISO  1  42   3
M  END
>  <minimizedAffinity>  (1) 
-5.3902607

>  <minimizedRMSD>  (1) 
0.944105446

$$$$
