
     RDKit          3D

 21 22  0  0  0  0  0  0  0  0999 V2000
   47.5070   35.0650   41.8710 C   0  0  0  0  0  0  0  0  0  0  0  0
   48.5710   35.7230   41.8710 O   0  0  0  0  0  0  0  0  0  0  0  0
   44.7250   35.8120   44.1710 C   0  0  0  0  0  0  0  0  0  0  0  0
   45.6200   35.9060   43.0790 C   0  0  0  0  0  0  0  0  0  0  0  0
   46.6160   34.9440   42.9860 C   0  0  0  0  0  0  0  0  0  0  0  0
   46.6890   33.9740   43.9260 N   0  0  0  0  0  0  0  0  0  0  0  0
   45.8120   33.9100   44.9670 C   0  0  0  0  0  0  0  0  0  0  0  0
   44.8190   34.8320   45.0970 N   0  0  0  0  0  0  0  0  0  0  0  0
   47.1980   34.3800   40.5970 C   0  0  0  0  0  0  0  0  0  0  0  0
   48.1010   34.4360   39.5500 C   0  0  0  0  0  0  0  0  0  0  0  0
   47.8140   33.7960   38.3550 C   0  0  0  0  0  0  0  0  0  0  0  0
   46.6320   33.1030   38.2070 C   0  0  0  0  0  0  0  0  0  0  0  0
   45.7790   33.0980   39.3150 C   0  0  0  0  0  0  0  0  0  0  0  0
   46.0400   33.7070   40.4670 N   0  0  0  0  0  0  0  0  0  0  0  0
   43.9260   36.5616   44.2695 H   0  0  0  0  0  0  0  0  0  0  0  0
   45.5299   36.7097   42.3334 H   0  0  0  0  0  0  0  0  0  0  0  0
   45.9075   33.1047   45.7102 H   0  0  0  0  0  0  0  0  0  0  0  0
   49.0454   34.9879   39.6662 H   0  0  0  0  0  0  0  0  0  0  0  0
   48.5314   33.8412   37.5224 H   0  0  0  0  0  0  0  0  0  0  0  0
   46.3746   32.5841   37.2719 H   0  0  0  0  0  0  0  0  0  0  0  0
   44.8275   32.5531   39.2271 H   0  0  0  0  0  0  0  0  0  0  0  0
  1  5  1  0
  2  1  2  0
  3  8  2  0
  4  3  1  0
  5  4  2  0
  5  6  1  0
  6  7  2  0
  7  8  1  0
  9  1  1  0
 10  9  2  0
 11 10  1  0
 12 11  2  0
 12 13  1  0
 13 14  2  0
 14  9  1  0
  3 15  1  0
  4 16  1  0
  7 17  1  0
 10 18  1  0
 11 19  1  0
 12 20  1  0
 13 21  1  0
M  ISO  7  15  14  16  14  17  14  18  14  19  14  20  14  21  14
M  END
>  <minimizedAffinity>  (1) 
-4.29977798

>  <minimizedRMSD>  (1) 
1.10892951

$$$$
