
     RDKit          3D

 24 25  0  0  0  0  0  0  0  0999 V2000
   44.6130   36.0480   44.4440 C   0  0  0  0  0  0  0  0  0  0  0  0
   45.3840   36.0140   43.2730 C   0  0  0  0  0  0  0  0  0  0  0  0
   46.2640   34.9290   43.1180 C   0  0  0  0  0  0  0  0  0  0  0  0
   46.3190   33.9880   44.0990 N   0  0  0  0  0  0  0  0  0  0  0  0
   45.5560   34.0680   45.2040 C   0  0  0  0  0  0  0  0  0  0  0  0
   44.6970   35.0950   45.3890 N   0  0  0  0  0  0  0  0  0  0  0  0
   47.0480   34.9240   41.8950 C   0  0  0  0  0  0  0  0  0  0  0  0
   48.1680   35.5260   41.8190 O   0  0  0  0  0  0  0  0  0  0  0  0
   46.4640   34.2000   40.8150 N   0  0  0  0  0  0  0  0  0  0  0  0
   47.0440   33.7190   39.5530 C   0  0  0  0  0  0  0  0  0  0  0  0
   46.1210   32.6050   39.1220 C   0  0  0  0  0  0  0  0  0  0  0  0
   44.7730   33.2050   39.4900 C   0  0  0  0  0  0  0  0  0  0  0  0
   45.0500   33.8030   40.8380 C   0  0  0  0  0  0  0  0  0  0  0  0
   43.9145   36.8842   44.5949 H   0  0  0  0  0  0  0  0  0  0  0  0
   45.3036   36.8017   42.5095 H   0  0  0  0  0  0  0  0  0  0  0  0
   45.6326   33.2833   45.9710 H   0  0  0  0  0  0  0  0  0  0  0  0
   47.0636   34.5221   38.8016 H   0  0  0  0  0  0  0  0  0  0  0  0
   48.0849   33.3826   39.6689 H   0  0  0  0  0  0  0  0  0  0  0  0
   46.3177   31.6764   39.6780 H   0  0  0  0  0  0  0  0  0  0  0  0
   46.2192   32.3104   38.0668 H   0  0  0  0  0  0  0  0  0  0  0  0
   44.4686   33.9758   38.7666 H   0  0  0  0  0  0  0  0  0  0  0  0
   43.9501   32.4750   39.4913 H   0  0  0  0  0  0  0  0  0  0  0  0
   44.8731   33.0608   41.6303 H   0  0  0  0  0  0  0  0  0  0  0  0
   44.3916   34.6596   41.0447 H   0  0  0  0  0  0  0  0  0  0  0  0
  1  6  2  0
  2  1  1  0
  3  2  2  0
  3  4  1  0
  4  5  2  0
  5  6  1  0
  7  3  1  0
  8  7  2  0
  9 13  1  0
  9  7  1  0
 10  9  1  0
 11 12  1  0
 11 10  1  0
 12 13  1  0
  1 14  1  0
  2 15  1  0
  5 16  1  0
 10 17  1  0
 10 18  1  0
 11 19  1  0
 11 20  1  0
 12 21  1  0
 12 22  1  0
 13 23  1  0
 13 24  1  0
M  ISO  8  14  14  15  14  16  14  17  13  18  13  19  13  20  13  21  13
M  ISO  3  22  13  23  13  24  13
M  END
>  <minimizedAffinity>  (1) 
-4.12438059

>  <minimizedRMSD>  (1) 
0.241070315

$$$$
