
     RDKit          3D

 46 49  0  0  1  0  0  0  0  0999 V2000
   49.5710   31.8240   41.5490 C   0  0  0  0  0  0  0  0  0  0  0  0
   50.9630   31.9150   41.8040 C   0  0  0  0  0  0  0  0  0  0  0  0
   51.8860   31.7540   40.7670 C   0  0  0  0  0  0  0  0  0  0  0  0
   51.3600   31.5150   39.5470 N   0  0  0  0  0  0  0  0  0  0  0  0
   50.0290   31.4320   39.3170 C   0  0  0  0  0  0  0  0  0  0  0  0
   49.1690   31.5850   40.3030 N   0  0  0  0  0  0  0  0  0  0  0  0
   49.4990   31.1730   37.9300 C   0  0  2  0  0  0  0  0  0  0  0  0
   50.2730   31.4820   36.7340 C   0  0  0  0  0  0  0  0  0  0  0  0
   49.1330   32.3860   37.0720 C   0  0  1  0  0  0  0  0  0  0  0  0
   47.9000   32.3560   36.2830 C   0  0  0  0  0  0  0  0  0  0  0  0
   46.6610   32.6530   36.8190 C   0  0  0  0  0  0  0  0  0  0  0  0
   45.5210   32.6080   36.0260 C   0  0  0  0  0  0  0  0  0  0  0  0
   45.5940   32.2690   34.6890 C   0  0  0  0  0  0  0  0  0  0  0  0
   46.8350   31.9680   34.1370 C   0  0  0  0  0  0  0  0  0  0  0  0
   47.9510   32.0200   34.9460 C   0  0  0  0  0  0  0  0  0  0  0  0
   48.6660   32.0050   42.6780 C   0  0  0  0  0  0  0  0  0  0  0  0
   48.2200   33.2390   42.9130 C   0  0  0  0  0  0  0  0  0  0  0  0
   47.2980   33.5360   44.0310 C   0  0  0  0  0  0  0  0  0  0  0  0
   44.8140   36.0650   43.3680 C   0  0  1  0  0  0  0  0  0  0  0  0
   46.0510   35.3450   42.8230 C   0  0  0  0  0  0  0  0  0  0  0  0
   45.9510   34.0490   43.5360 C   0  0  2  0  0  0  0  0  0  0  0  0
   45.0500   34.1720   44.5610 O   0  0  0  0  0  0  0  0  0  0  0  0
   44.7410   35.4860   44.7590 C   0  0  0  0  0  0  0  0  0  0  0  0
   45.0070   37.4330   43.3630 O   0  0  0  0  0  0  0  0  0  0  0  0
   51.3190   32.1138   42.8257 H   0  0  0  0  0  0  0  0  0  0  0  0
   52.9713   31.8179   40.9342 H   0  0  0  0  0  0  0  0  0  0  0  0
   48.9999   30.2603   38.2876 H   0  0  0  0  0  0  0  0  0  0  0  0
   50.2019   30.8233   35.8559 H   0  0  0  0  0  0  0  0  0  0  0  0
   51.3433   31.6439   36.5383 H   0  0  0  0  0  0  0  0  0  0  0  0
   49.0107   33.4680   37.2280 H   0  0  0  0  0  0  0  0  0  0  0  0
   46.5769   32.9270   37.8810 H   0  0  0  0  0  0  0  0  0  0  0  0
   44.5435   32.8464   36.4706 H   0  0  0  0  0  0  0  0  0  0  0  0
   44.6850   32.2375   34.0703 H   0  0  0  0  0  0  0  0  0  0  0  0
   46.9246   31.6937   33.0755 H   0  0  0  0  0  0  0  0  0  0  0  0
   48.9295   31.7819   34.5034 H   0  0  0  0  0  0  0  0  0  0  0  0
   48.3635   31.1573   43.3103 H   0  0  0  0  0  0  0  0  0  0  0  0
   48.5467   34.0595   42.2572 H   0  0  0  0  0  0  0  0  0  0  0  0
   47.1364   32.6164   44.6125 H   0  0  0  0  0  0  0  0  0  0  0  0
   47.7553   34.3217   44.6503 H   0  0  0  0  0  0  0  0  0  0  0  0
   43.8892   35.9248   42.7892 H   0  0  0  0  0  0  0  0  0  0  0  0
   45.9955   35.2129   41.7324 H   0  0  0  0  0  0  0  0  0  0  0  0
   46.9982   35.8813   42.9813 H   0  0  0  0  0  0  0  0  0  0  0  0
   45.5964   33.2917   42.8214 H   0  0  0  0  0  0  0  0  0  0  0  0
   45.4708   35.9675   45.4265 H   0  0  0  0  0  0  0  0  0  0  0  0
   43.7624   35.6336   45.2392 H   0  0  0  0  0  0  0  0  0  0  0  0
   45.0536   37.7631   44.2952 H   0  0  0  0  0  0  0  0  0  0  0  0
  1  2  2  0
  1 16  1  0
  3  2  1  0
  4  3  2  0
  5  4  1  0
  5  6  2  0
  6  1  1  0
  7  5  1  0
  8  9  1  0
  8  7  1  0
  9  7  1  0
 10 11  2  0
 10  9  1  0
 12 11  1  0
 13 12  2  0
 14 13  1  0
 14 15  2  0
 15 10  1  0
 16 17  2  0
 17 18  1  0
 19 23  1  0
 20 19  1  0
 20 21  1  0
 21 18  1  0
 21 22  1  0
 22 23  1  0
 24 19  1  0
  2 25  1  0
  3 26  1  0
  7 27  1  1
  8 28  1  0
  8 29  1  0
  9 30  1  1
 11 31  1  0
 12 32  1  0
 13 33  1  0
 14 34  1  0
 15 35  1  0
 16 36  1  0
 17 37  1  0
 18 38  1  0
 18 39  1  0
 19 40  1  6
 20 41  1  0
 20 42  1  0
 21 43  1  6
 23 44  1  0
 23 45  1  0
 24 46  1  0
M  ISO  8  25  14  26  14  27  13  28  13  29  13  30  13  31  14  32  14
M  ISO  8  33  14  34  14  35  14  38   8  39   8  40  13  41  13  42  13
M  ISO  4  43  13  44  13  45  13  46   3
M  END
>  <minimizedAffinity>  (1) 
-5.16431856

>  <minimizedRMSD>  (1) 
0.653002441

$$$$
