
     RDKit          3D

 43 46  0  0  1  0  0  0  0  0999 V2000
   48.9680   31.6000   39.5100 C   0  0  2  0  0  0  0  0  0  0  0  0
   50.0770   31.9190   40.4040 C   0  0  0  0  0  0  0  0  0  0  0  0
   49.7140   32.8470   41.4080 N   0  0  0  0  0  0  0  0  0  0  0  0
   49.5380   33.9080   42.3310 C   0  0  0  0  0  0  0  0  0  0  0  0
   50.3400   34.8790   42.5290 O   0  0  0  0  0  0  0  0  0  0  0  0
   48.2540   33.4430   42.8360 C   0  0  2  0  0  0  0  0  0  0  0  0
   48.5850   32.2120   42.0190 C   0  0  1  0  0  0  0  0  0  0  0  0
   47.5200   31.9280   40.5770 S   0  0  0  0  0  0  0  0  0  0  0  0
   48.9480   30.1310   39.1990 C   0  0  0  0  0  0  0  0  0  0  0  0
   48.9160   32.4680   38.2640 C   0  0  0  0  0  0  0  0  0  0  0  0
   47.7430   32.3330   37.5110 N   0  0  0  0  0  0  0  0  0  0  0  0
   48.0360   31.9000   36.1700 C   0  0  0  0  0  0  0  0  0  0  0  0
   46.7050   32.0310   35.4570 C   0  0  0  0  0  0  0  0  0  0  0  0
   45.8110   32.7970   36.4200 C   0  0  0  0  0  0  0  0  0  0  0  0
   46.8760   33.4330   37.3330 C   0  0  0  0  0  0  0  0  0  0  0  0
   47.1490   34.2840   42.3770 C   0  0  0  0  0  0  0  0  0  0  0  0
   46.9550   34.7180   41.2170 O   0  0  0  0  0  0  0  0  0  0  0  0
   44.5890   35.9640   44.4370 C   0  0  0  0  0  0  0  0  0  0  0  0
   45.4490   35.6590   43.3660 C   0  0  0  0  0  0  0  0  0  0  0  0
   46.2950   34.5490   43.5000 C   0  0  0  0  0  0  0  0  0  0  0  0
   46.2500   33.8200   44.6450 N   0  0  0  0  0  0  0  0  0  0  0  0
   45.4070   34.1420   45.6600 C   0  0  0  0  0  0  0  0  0  0  0  0
   44.5640   35.2210   45.5660 N   0  0  0  0  0  0  0  0  0  0  0  0
   50.4182   30.9917   40.8875 H   0  0  0  0  0  0  0  0  0  0  0  0
   50.8734   32.3763   39.7985 H   0  0  0  0  0  0  0  0  0  0  0  0
   47.9508   33.3715   43.8910 H   0  0  0  0  0  0  0  0  0  0  0  0
   48.5995   31.2770   42.5983 H   0  0  0  0  0  0  0  0  0  0  0  0
   48.9402   29.5576   40.1377 H   0  0  0  0  0  0  0  0  0  0  0  0
   48.0465   29.8919   38.6158 H   0  0  0  0  0  0  0  0  0  0  0  0
   49.8426   29.8675   38.6158 H   0  0  0  0  0  0  0  0  0  0  0  0
   49.0063   33.5196   38.5738 H   0  0  0  0  0  0  0  0  0  0  0  0
   49.7425   32.1376   37.6177 H   0  0  0  0  0  0  0  0  0  0  0  0
   48.7960   32.5456   35.7056 H   0  0  0  0  0  0  0  0  0  0  0  0
   48.4453   30.8798   36.1291 H   0  0  0  0  0  0  0  0  0  0  0  0
   46.8246   32.5877   34.5158 H   0  0  0  0  0  0  0  0  0  0  0  0
   46.2812   31.0507   35.1937 H   0  0  0  0  0  0  0  0  0  0  0  0
   45.2117   33.5593   35.9007 H   0  0  0  0  0  0  0  0  0  0  0  0
   45.0625   32.1831   36.9423 H   0  0  0  0  0  0  0  0  0  0  0  0
   47.3833   34.2760   36.8410 H   0  0  0  0  0  0  0  0  0  0  0  0
   46.4846   33.8671   38.2649 H   0  0  0  0  0  0  0  0  0  0  0  0
   43.9180   36.8316   44.3532 H   0  0  0  0  0  0  0  0  0  0  0  0
   45.4573   36.2719   42.4526 H   0  0  0  0  0  0  0  0  0  0  0  0
   45.3997   33.5278   46.5725 H   0  0  0  0  0  0  0  0  0  0  0  0
  1 10  1  6
  1  2  1  0
  1  8  1  0
  2  3  1  0
  3  7  1  0
  3  4  1  0
  4  5  2  0
  4  6  1  0
  7  6  1  0
  8  7  1  0
  9  1  1  0
 11 10  1  0
 12 11  1  0
 13 12  1  0
 13 14  1  0
 14 15  1  0
 15 11  1  0
 16  6  1  0
 16 20  1  0
 17 16  2  0
 18 23  2  0
 19 20  2  0
 19 18  1  0
 20 21  1  0
 21 22  2  0
 23 22  1  0
  2 24  1  0
  2 25  1  0
  6 26  1  1
  7 27  1  1
  9 28  1  0
  9 29  1  0
  9 30  1  0
 10 31  1  0
 10 32  1  0
 12 33  1  0
 12 34  1  0
 13 35  1  0
 13 36  1  0
 14 37  1  0
 14 38  1  0
 15 39  1  0
 15 40  1  0
 18 41  1  0
 19 42  1  0
 22 43  1  0
M  ISO  8  24  13  25  13  26  13  27  13  28   8  29   8  30   8  31   8
M  ISO  8  32   8  33  13  34  13  35  13  36  13  37  13  38  13  39  13
M  ISO  4  40  13  41  14  42  14  43  14
M  END
>  <minimizedAffinity>  (1) 
-5.16432858

>  <minimizedRMSD>  (1) 
2.26951122

$$$$
