
     RDKit          3D

 33 35  0  0  1  0  0  0  0  0999 V2000
   48.1430   32.8350   38.3370 C   0  0  2  0  0  0  0  0  0  0  0  0
   49.1590   32.0930   39.0890 C   0  0  0  0  0  0  0  0  0  0  0  0
   49.2870   32.5820   40.4220 N   0  0  0  0  0  0  0  0  0  0  0  0
   49.6660   33.1060   41.6910 C   0  0  0  0  0  0  0  0  0  0  0  0
   50.8420   33.3410   42.0940 O   0  0  0  0  0  0  0  0  0  0  0  0
   48.2980   33.2110   42.1840 C   0  0  2  0  0  0  0  0  0  0  0  0
   47.9690   32.4580   40.9180 C   0  0  1  0  0  0  0  0  0  0  0  0
   47.0230   33.3880   39.6790 S   0  0  0  0  0  0  0  0  0  0  0  0
   47.3360   31.8520   37.5070 C   0  0  0  0  0  0  0  0  0  0  0  0
   48.6390   34.0020   37.5310 C   0  0  0  0  0  0  0  0  0  0  0  0
   47.5040   34.5710   36.8320 N   0  0  0  0  0  0  0  0  0  0  0  0
   47.8580   34.6140   42.2730 C   0  0  0  0  0  0  0  0  0  0  0  0
   48.3180   35.5900   41.6330 O   0  0  0  0  0  0  0  0  0  0  0  0
   44.7860   35.8130   43.9170 C   0  0  0  0  0  0  0  0  0  0  0  0
   45.8470   35.6940   43.0050 C   0  0  0  0  0  0  0  0  0  0  0  0
   46.8010   34.6950   43.2330 C   0  0  0  0  0  0  0  0  0  0  0  0
   46.6650   33.8830   44.3180 N   0  0  0  0  0  0  0  0  0  0  0  0
   45.6190   34.0360   45.1740 C   0  0  0  0  0  0  0  0  0  0  0  0
   44.6730   35.0020   44.9780 N   0  0  0  0  0  0  0  0  0  0  0  0
   48.8726   31.0315   39.1242 H   0  0  0  0  0  0  0  0  0  0  0  0
   50.1259   32.2226   38.5808 H   0  0  0  0  0  0  0  0  0  0  0  0
   47.9278   32.8761   43.1642 H   0  0  0  0  0  0  0  0  0  0  0  0
   47.4288   31.5144   41.0851 H   0  0  0  0  0  0  0  0  0  0  0  0
   46.7815   31.1766   38.1751 H   0  0  0  0  0  0  0  0  0  0  0  0
   46.6268   32.4036   36.8724 H   0  0  0  0  0  0  0  0  0  0  0  0
   48.0152   31.2638   36.8724 H   0  0  0  0  0  0  0  0  0  0  0  0
   49.0841   34.7553   38.1977 H   0  0  0  0  0  0  0  0  0  0  0  0
   49.4076   33.6759   36.8149 H   0  0  0  0  0  0  0  0  0  0  0  0
   46.8165   34.9157   37.5171 H   0  0  0  0  0  0  0  0  0  0  0  0
   47.8214   35.3527   36.2411 H   0  0  0  0  0  0  0  0  0  0  0  0
   44.0271   36.5929   43.7563 H   0  0  0  0  0  0  0  0  0  0  0  0
   45.9263   36.3656   42.1374 H   0  0  0  0  0  0  0  0  0  0  0  0
   45.5329   33.3673   46.0431 H   0  0  0  0  0  0  0  0  0  0  0  0
  1  9  1  6
  1  2  1  0
  1  8  1  0
  2  3  1  0
  3  7  1  0
  3  4  1  0
  4  5  2  0
  4  6  1  0
  6 12  1  0
  7  6  1  0
  8  7  1  0
 10  1  1  0
 11 10  1  0
 12 16  1  0
 13 12  2  0
 14 19  2  0
 15 16  2  0
 15 14  1  0
 16 17  1  0
 17 18  2  0
 19 18  1  0
  2 20  1  0
  2 21  1  0
  6 22  1  1
  7 23  1  1
  9 24  1  0
  9 25  1  0
  9 26  1  0
 10 27  1  0
 10 28  1  0
 11 29  1  0
 11 30  1  0
 14 31  1  0
 15 32  1  0
 18 33  1  0
M  ISO  8  20  13  21  13  22  13  23  13  24   8  25   8  26   8  27   8
M  ISO  6  28   8  29   5  30   5  31  14  32  14  33  14
M  END
>  <minimizedAffinity>  (1) 
-5.11289644

>  <minimizedRMSD>  (1) 
0.291177422

$$$$
