
     RDKit          3D

 38 41  0  0  1  0  0  0  0  0999 V2000
   48.6960   31.8280   39.0710 C   0  0  2  0  0  0  0  0  0  0  0  0
   49.8560   31.7610   39.9850 C   0  0  0  0  0  0  0  0  0  0  0  0
   49.6670   32.5950   41.1130 N   0  0  0  0  0  0  0  0  0  0  0  0
   49.7300   33.5530   42.1670 C   0  0  0  0  0  0  0  0  0  0  0  0
   50.7100   34.2950   42.4640 O   0  0  0  0  0  0  0  0  0  0  0  0
   48.3730   33.2970   42.6340 C   0  0  2  0  0  0  0  0  0  0  0  0
   48.4420   32.1490   41.6540 C   0  0  1  0  0  0  0  0  0  0  0  0
   47.3410   32.2850   40.2170 S   0  0  0  0  0  0  0  0  0  0  0  0
   48.3680   30.4300   38.5800 C   0  0  0  0  0  0  0  0  0  0  0  0
   48.8320   32.8200   37.9510 C   0  0  0  0  0  0  0  0  0  0  0  0
   47.8710   32.5780   36.8660 C   0  0  0  0  0  0  0  0  0  0  0  0
   46.5070   32.6550   36.6660 C   0  0  0  0  0  0  0  0  0  0  0  0
   46.2080   32.2800   35.3730 C   0  0  0  0  0  0  0  0  0  0  0  0
   47.4500   31.9860   34.8410 C   0  0  0  0  0  0  0  0  0  0  0  0
   48.4030   32.1660   35.7240 O   0  0  0  0  0  0  0  0  0  0  0  0
   47.4670   34.4110   42.3140 C   0  0  0  0  0  0  0  0  0  0  0  0
   47.4820   35.1240   41.2820 O   0  0  0  0  0  0  0  0  0  0  0  0
   44.6870   35.7990   44.2950 C   0  0  0  0  0  0  0  0  0  0  0  0
   45.6190   35.6070   43.2620 C   0  0  0  0  0  0  0  0  0  0  0  0
   46.5420   34.5630   43.3980 C   0  0  0  0  0  0  0  0  0  0  0  0
   46.5070   33.7800   44.5100 N   0  0  0  0  0  0  0  0  0  0  0  0
   45.5840   34.0040   45.4870 C   0  0  0  0  0  0  0  0  0  0  0  0
   44.6690   35.0060   45.3940 N   0  0  0  0  0  0  0  0  0  0  0  0
   49.9863   30.7227   40.3241 H   0  0  0  0  0  0  0  0  0  0  0  0
   50.7481   32.1061   39.4419 H   0  0  0  0  0  0  0  0  0  0  0  0
   48.0561   33.1449   43.6763 H   0  0  0  0  0  0  0  0  0  0  0  0
   48.2571   31.1629   42.1050 H   0  0  0  0  0  0  0  0  0  0  0  0
   48.2121   29.7656   39.4427 H   0  0  0  0  0  0  0  0  0  0  0  0
   47.4527   30.4607   37.9707 H   0  0  0  0  0  0  0  0  0  0  0  0
   49.2015   30.0504   37.9707 H   0  0  0  0  0  0  0  0  0  0  0  0
   48.6642   33.8304   38.3522 H   0  0  0  0  0  0  0  0  0  0  0  0
   49.8435   32.7145   37.5317 H   0  0  0  0  0  0  0  0  0  0  0  0
   45.7716   32.9675   37.4220 H   0  0  0  0  0  0  0  0  0  0  0  0
   45.2236   32.2276   34.8849 H   0  0  0  0  0  0  0  0  0  0  0  0
   47.6174   31.6447   33.8088 H   0  0  0  0  0  0  0  0  0  0  0  0
   43.9529   36.6138   44.2099 H   0  0  0  0  0  0  0  0  0  0  0  0
   45.6237   36.2563   42.3741 H   0  0  0  0  0  0  0  0  0  0  0  0
   45.5787   33.3562   46.3760 H   0  0  0  0  0  0  0  0  0  0  0  0
  1 10  1  6
  1  2  1  0
  1  8  1  0
  2  3  1  0
  3  7  1  0
  3  4  1  0
  4  5  2  0
  4  6  1  0
  7  6  1  0
  8  7  1  0
  9  1  1  0
 11 10  1  0
 12 11  2  0
 13 12  1  0
 14 13  2  0
 14 15  1  0
 15 11  1  0
 16  6  1  0
 16 20  1  0
 17 16  2  0
 18 23  2  0
 19 20  2  0
 19 18  1  0
 20 21  1  0
 21 22  2  0
 23 22  1  0
  2 24  1  0
  2 25  1  0
  6 26  1  1
  7 27  1  1
  9 28  1  0
  9 29  1  0
  9 30  1  0
 10 31  1  0
 10 32  1  0
 12 33  1  0
 13 34  1  0
 14 35  1  0
 18 36  1  0
 19 37  1  0
 22 38  1  0
M  ISO  8  24  13  25  13  26  13  27  13  28   8  29   8  30   8  31   8
M  ISO  7  32   8  33  14  34  14  35  14  36  14  37  14  38  14
M  END
>  <minimizedAffinity>  (1) 
-4.94648218

>  <minimizedRMSD>  (1) 
2.0794878

$$$$
