
     RDKit          3D

 35 38  0  0  1  0  0  0  0  0999 V2000
   48.8200   33.7810   41.9330 C   0  0  1  0  0  0  0  0  0  0  0  0
   50.1430   34.2000   42.4930 C   0  0  0  0  0  0  0  0  0  0  0  0
   49.8210   32.7150   42.1150 C   0  0  2  0  0  0  0  0  0  0  0  0
   50.4160   32.2080   40.8510 C   0  0  0  0  0  0  0  0  0  0  0  0
   51.7000   31.7560   40.7430 C   0  0  0  0  0  0  0  0  0  0  0  0
   52.2150   31.2880   39.5350 C   0  0  0  0  0  0  0  0  0  0  0  0
   51.4090   31.2740   38.4000 C   0  0  0  0  0  0  0  0  0  0  0  0
   51.8370   30.8370   37.2020 N   0  0  0  0  0  0  0  0  0  0  0  0
   51.0170   30.8460   36.1370 C   0  0  0  0  0  0  0  0  0  0  0  0
   49.7120   31.2940   36.2060 C   0  0  0  0  0  0  0  0  0  0  0  0
   49.2620   31.7490   37.4500 C   0  0  0  0  0  0  0  0  0  0  0  0
   50.1150   31.7320   38.5200 C   0  0  0  0  0  0  0  0  0  0  0  0
   49.6200   32.1920   39.7230 C   0  0  0  0  0  0  0  0  0  0  0  0
   45.7140   34.8450   43.7780 C   0  0  0  0  0  0  0  0  0  0  0  0
   46.7120   34.8420   42.8040 C   0  0  0  0  0  0  0  0  0  0  0  0
   47.6920   33.8820   42.9160 C   0  0  0  0  0  0  0  0  0  0  0  0
   47.6480   32.9920   43.9480 N   0  0  0  0  0  0  0  0  0  0  0  0
   46.6530   33.0300   44.8800 C   0  0  0  0  0  0  0  0  0  0  0  0
   45.6800   33.9720   44.7830 N   0  0  0  0  0  0  0  0  0  0  0  0
   44.6340   35.8690   43.6700 C   0  0  0  0  0  0  0  0  0  0  0  0
   43.9810   35.9110   44.8930 F   0  0  0  0  0  0  0  0  0  0  0  0
   43.7400   35.4440   42.7250 F   0  0  0  0  0  0  0  0  0  0  0  0
   45.1410   37.1180   43.4140 F   0  0  0  0  0  0  0  0  0  0  0  0
   48.2085   34.0645   41.0637 H   0  0  0  0  0  0  0  0  0  0  0  0
   50.8437   34.7902   41.8842 H   0  0  0  0  0  0  0  0  0  0  0  0
   50.4908   34.7314   43.3911 H   0  0  0  0  0  0  0  0  0  0  0  0
   49.8740   31.7525   42.6449 H   0  0  0  0  0  0  0  0  0  0  0  0
   52.3457   31.7613   41.6336 H   0  0  0  0  0  0  0  0  0  0  0  0
   53.2540   30.9312   39.4789 H   0  0  0  0  0  0  0  0  0  0  0  0
   51.4002   30.4822   35.1722 H   0  0  0  0  0  0  0  0  0  0  0  0
   49.0564   31.2930   35.3227 H   0  0  0  0  0  0  0  0  0  0  0  0
   48.2320   32.1170   37.5670 H   0  0  0  0  0  0  0  0  0  0  0  0
   48.5814   32.5493   39.7839 H   0  0  0  0  0  0  0  0  0  0  0  0
   46.7159   35.5741   41.9830 H   0  0  0  0  0  0  0  0  0  0  0  0
   46.6389   32.3023   45.7048 H   0  0  0  0  0  0  0  0  0  0  0  0
  1  3  1  0
  1  2  1  0
  1 16  1  0
  3  2  1  0
  4  3  1  0
  5  4  2  0
  6  5  1  0
  7 12  1  0
  7  6  2  0
  8  7  1  0
  9 10  1  0
  9  8  2  0
 10 11  2  0
 11 12  1  0
 12 13  2  0
 13  4  1  0
 14 19  2  0
 15 16  2  0
 15 14  1  0
 16 17  1  0
 17 18  2  0
 19 18  1  0
 20 14  1  0
 20 21  1  0
 22 20  1  0
 23 20  1  0
  1 24  1  6
  2 25  1  0
  2 26  1  0
  3 27  1  1
  5 28  1  0
  6 29  1  0
  9 30  1  0
 10 31  1  0
 11 32  1  0
 13 33  1  0
 15 34  1  0
 18 35  1  0
M  ISO  8  24  13  25  13  26  13  27  13  28  14  29  14  30  14  31  14
M  ISO  4  32  14  33  14  34  14  35  14
M  END
>  <minimizedAffinity>  (1) 
-5.75241327

>  <minimizedRMSD>  (1) 
2.24901319

$$$$
