
     RDKit          3D

 22 23  0  0  1  0  0  0  0  0999 V2000
   44.4600   35.1340   41.8750 C   0  0  0  0  0  0  0  0  0  0  0  0
   43.0830   35.3440   41.8210 C   0  0  0  0  0  0  0  0  0  0  0  0
   42.3940   34.6540   40.8410 C   0  0  0  0  0  0  0  0  0  0  0  0
   43.0790   33.8290   40.0020 N   0  0  0  0  0  0  0  0  0  0  0  0
   44.4140   33.6560   40.0890 C   0  0  0  0  0  0  0  0  0  0  0  0
   45.1160   34.3220   41.0420 N   0  0  0  0  0  0  0  0  0  0  0  0
   40.9120   34.8070   40.6870 C   0  0  1  0  0  0  0  0  0  0  0  0
   40.4330   36.2230   40.7740 C   0  0  0  0  0  0  0  0  0  0  0  0
   40.3980   35.4050   39.4440 C   0  0  1  0  0  0  0  0  0  0  0  0
   41.4050   35.7740   38.4110 C   0  0  0  0  0  0  0  0  0  0  0  0
   41.0340   36.0540   37.2870 O   0  0  0  0  0  0  0  0  0  0  0  0
   45.2310   35.8590   42.9330 C   0  0  0  0  0  0  0  0  0  0  0  0
   46.5790   35.6620   42.6680 F   0  0  0  0  0  0  0  0  0  0  0  0
   44.9450   35.2840   44.1410 F   0  0  0  0  0  0  0  0  0  0  0  0
   44.9890   37.2080   42.8940 F   0  0  0  0  0  0  0  0  0  0  0  0
   42.5722   36.0221   42.5204 H   0  0  0  0  0  0  0  0  0  0  0  0
   44.9309   32.9796   39.3923 H   0  0  0  0  0  0  0  0  0  0  0  0
   40.6706   33.8654   41.2020 H   0  0  0  0  0  0  0  0  0  0  0  0
   39.4999   36.4636   41.3045 H   0  0  0  0  0  0  0  0  0  0  0  0
   40.8561   37.1838   41.1024 H   0  0  0  0  0  0  0  0  0  0  0  0
   39.6272   35.1363   38.7067 H   0  0  0  0  0  0  0  0  0  0  0  0
   42.4757   35.7932   38.6624 H   0  0  0  0  0  0  0  0  0  0  0  0
  1 12  1  0
  2  1  2  0
  3  2  1  0
  4  5  1  0
  4  3  2  0
  5  6  2  0
  6  1  1  0
  7  8  1  0
  7  3  1  0
  9  7  1  0
  9  8  1  0
 10  9  1  0
 11 10  2  0
 12 14  1  0
 13 12  1  0
 15 12  1  0
  2 16  1  0
  5 17  1  0
  7 18  1  1
  8 19  1  0
  8 20  1  0
  9 21  1  6
 10 22  1  0
M  ISO  7  16  14  17  14  18  13  19  13  20  13  21  13  22   6
M  END
>  <minimizedAffinity>  (1) 
-4.72835541

>  <minimizedRMSD>  (1) 
6.55366898

$$$$
