
     RDKit          3D

 27 29  0  0  1  0  0  0  0  0999 V2000
   46.6110   32.5210   44.0610 C   0  0  1  0  0  0  0  0  0  0  0  0
   46.0800   33.8730   44.4150 C   0  0  0  0  0  0  0  0  0  0  0  0
   47.5500   33.6460   43.9280 C   0  0  2  0  0  0  0  0  0  0  0  0
   46.1440   30.7980   47.3730 C   0  0  0  0  0  0  0  0  0  0  0  0
   45.9180   31.7110   46.3450 C   0  0  0  0  0  0  0  0  0  0  0  0
   46.7470   31.5970   45.2350 C   0  0  0  0  0  0  0  0  0  0  0  0
   47.7140   30.6360   45.1970 N   0  0  0  0  0  0  0  0  0  0  0  0
   47.8910   29.7680   46.2330 C   0  0  0  0  0  0  0  0  0  0  0  0
   47.0990   29.8580   47.3190 N   0  0  0  0  0  0  0  0  0  0  0  0
   45.2690   30.8740   48.5770 C   0  0  0  0  0  0  0  0  0  0  0  0
   46.0560   31.3050   49.6360 F   0  0  0  0  0  0  0  0  0  0  0  0
   44.8230   29.6120   48.8660 F   0  0  0  0  0  0  0  0  0  0  0  0
   44.2580   31.7860   48.4000 F   0  0  0  0  0  0  0  0  0  0  0  0
   47.8000   34.1310   42.5460 C   0  0  0  0  0  0  0  0  0  0  0  0
   47.2890   33.6080   41.3760 C   0  0  0  0  0  0  0  0  0  0  0  0
   47.8390   34.4320   40.4120 C   0  0  0  0  0  0  0  0  0  0  0  0
   48.6460   35.4080   41.0050 C   0  0  0  0  0  0  0  0  0  0  0  0
   48.5690   35.1560   42.2910 O   0  0  0  0  0  0  0  0  0  0  0  0
   46.3281   31.7239   43.3577 H   0  0  0  0  0  0  0  0  0  0  0  0
   45.3480   34.3722   43.7630 H   0  0  0  0  0  0  0  0  0  0  0  0
   45.5969   34.3304   45.2910 H   0  0  0  0  0  0  0  0  0  0  0  0
   48.5609   33.8563   44.3072 H   0  0  0  0  0  0  0  0  0  0  0  0
   45.1305   32.4764   46.4080 H   0  0  0  0  0  0  0  0  0  0  0  0
   48.6757   28.9988   46.1826 H   0  0  0  0  0  0  0  0  0  0  0  0
   46.6132   32.7502   41.2435 H   0  0  0  0  0  0  0  0  0  0  0  0
   47.6661   34.3337   39.3301 H   0  0  0  0  0  0  0  0  0  0  0  0
   49.2161   36.2060   40.5068 H   0  0  0  0  0  0  0  0  0  0  0  0
  1  2  1  0
  1  6  1  0
  3  1  1  0
  3  2  1  0
  4 10  1  0
  5  4  2  0
  6  5  1  0
  7  6  2  0
  7  8  1  0
  8  9  2  0
  9  4  1  0
 10 12  1  0
 10 11  1  0
 13 10  1  0
 14  3  1  0
 15 14  2  0
 16 17  2  0
 16 15  1  0
 17 18  1  0
 18 14  1  0
  1 19  1  6
  2 20  1  0
  2 21  1  0
  3 22  1  1
  5 23  1  0
  8 24  1  0
 15 25  1  0
 16 26  1  0
 17 27  1  0
M  ISO  8  19  13  20  13  21  13  22  13  23  14  24  14  25  14  26  14
M  ISO  1  27  14
M  END
>  <minimizedAffinity>  (1) 
-4.65907526

>  <minimizedRMSD>  (1) 
4.91577005

$$$$
