
     RDKit          3D

 43 45  0  0  1  0  0  0  0  0999 V2000
   49.7260   32.7280   41.5200 C   0  0  0  0  0  0  0  0  0  0  0  0
   51.0970   32.4020   41.6610 C   0  0  0  0  0  0  0  0  0  0  0  0
   51.7810   31.7370   40.6390 C   0  0  0  0  0  0  0  0  0  0  0  0
   51.0500   31.4400   39.5410 N   0  0  0  0  0  0  0  0  0  0  0  0
   49.7400   31.7560   39.4170 C   0  0  0  0  0  0  0  0  0  0  0  0
   49.1120   32.3830   40.3900 N   0  0  0  0  0  0  0  0  0  0  0  0
   48.9780   31.4110   38.1670 C   0  0  2  0  0  0  0  0  0  0  0  0
   49.5590   31.5670   36.8370 C   0  0  0  0  0  0  0  0  0  0  0  0
   48.5360   32.5680   37.2620 C   0  0  1  0  0  0  0  0  0  0  0  0
   47.1750   32.5340   36.6840 C   0  0  0  0  0  0  0  0  0  0  0  0
   47.0130   32.2220   35.4100 C   0  0  0  0  0  0  0  0  0  0  0  0
   45.6170   32.1920   34.8380 C   0  0  0  0  0  0  0  0  0  0  0  0
   49.0760   33.4240   42.6220 C   0  0  0  0  0  0  0  0  0  0  0  0
   47.8740   32.9870   42.9970 C   0  0  0  0  0  0  0  0  0  0  0  0
   47.1220   33.6220   44.1080 C   0  0  0  0  0  0  0  0  0  0  0  0
   44.7330   36.2340   43.4570 C   0  0  1  0  0  0  0  0  0  0  0  0
   45.9180   35.4480   42.8890 C   0  0  0  0  0  0  0  0  0  0  0  0
   45.7860   34.1760   43.6460 C   0  0  2  0  0  0  0  0  0  0  0  0
   44.9300   34.3690   44.6990 O   0  0  0  0  0  0  0  0  0  0  0  0
   44.6890   35.7000   44.8700 C   0  0  0  0  0  0  0  0  0  0  0  0
   44.9900   37.5930   43.4100 O   0  0  0  0  0  0  0  0  0  0  0  0
   51.6292   32.6749   42.5842 H   0  0  0  0  0  0  0  0  0  0  0  0
   52.8454   31.4724   40.7228 H   0  0  0  0  0  0  0  0  0  0  0  0
   48.5006   30.5666   38.6858 H   0  0  0  0  0  0  0  0  0  0  0  0
   49.3127   30.8406   36.0486 H   0  0  0  0  0  0  0  0  0  0  0  0
   50.5893   31.6433   36.4594 H   0  0  0  0  0  0  0  0  0  0  0  0
   48.4957   33.6654   37.3268 H   0  0  0  0  0  0  0  0  0  0  0  0
   46.3020   32.7672   37.3113 H   0  0  0  0  0  0  0  0  0  0  0  0
   47.8816   31.9880   34.7770 H   0  0  0  0  0  0  0  0  0  0  0  0
   44.8847   32.1763   35.6587 H   0  0  0  0  0  0  0  0  0  0  0  0
   45.4550   33.0869   34.2192 H   0  0  0  0  0  0  0  0  0  0  0  0
   45.4936   31.2910   34.2192 H   0  0  0  0  0  0  0  0  0  0  0  0
   49.5576   34.2758   43.1244 H   0  0  0  0  0  0  0  0  0  0  0  0
   47.4269   32.1321   42.4685 H   0  0  0  0  0  0  0  0  0  0  0  0
   46.9433   32.8705   44.8912 H   0  0  0  0  0  0  0  0  0  0  0  0
   47.7235   34.4597   44.4907 H   0  0  0  0  0  0  0  0  0  0  0  0
   43.7827   36.1162   42.9156 H   0  0  0  0  0  0  0  0  0  0  0  0
   45.8175   35.2881   41.8053 H   0  0  0  0  0  0  0  0  0  0  0  0
   46.8927   35.9465   42.9961 H   0  0  0  0  0  0  0  0  0  0  0  0
   45.3716   33.4153   42.9681 H   0  0  0  0  0  0  0  0  0  0  0  0
   45.4659   36.1661   45.4938 H   0  0  0  0  0  0  0  0  0  0  0  0
   43.7388   35.9074   45.3839 H   0  0  0  0  0  0  0  0  0  0  0  0
   45.0572   37.9482   44.3316 H   0  0  0  0  0  0  0  0  0  0  0  0
  1  2  2  0
  1 13  1  0
  3  2  1  0
  4  3  2  0
  5  4  1  0
  5  6  2  0
  6  1  1  0
  7  5  1  0
  8  9  1  0
  8  7  1  0
  9  7  1  0
 10  9  1  0
 11 10  2  0
 12 11  1  0
 13 14  2  0
 14 15  1  0
 16 20  1  0
 17 16  1  0
 17 18  1  0
 18 15  1  0
 18 19  1  0
 19 20  1  0
 21 16  1  0
  2 22  1  0
  3 23  1  0
  7 24  1  1
  8 25  1  0
  8 26  1  0
  9 27  1  1
 10 28  1  0
 11 29  1  0
 12 30  1  0
 12 31  1  0
 12 32  1  0
 13 33  1  0
 14 34  1  0
 15 35  1  0
 15 36  1  0
 16 37  1  6
 17 38  1  0
 17 39  1  0
 18 40  1  6
 20 41  1  0
 20 42  1  0
 21 43  1  0
M  ISO  8  22  14  23  14  24  13  25  13  26  13  27  13  30   8  31   8
M  ISO  8  32   8  35   8  36   8  37  13  38  13  39  13  40  13  41  13
M  ISO  2  42  13  43   3
M  END
>  <minimizedAffinity>  (1) 
-4.84350109

>  <minimizedRMSD>  (1) 
0.576913834

$$$$
