
     RDKit          3D

 28 30  0  0  1  0  0  0  0  0999 V2000
   46.5060   32.4200   44.2490 C   0  0  1  0  0  0  0  0  0  0  0  0
   46.0370   33.7880   44.5420 C   0  0  0  0  0  0  0  0  0  0  0  0
   47.4810   33.4880   43.9880 C   0  0  2  0  0  0  0  0  0  0  0  0
   46.0930   30.7570   47.5880 C   0  0  0  0  0  0  0  0  0  0  0  0
   45.8390   31.6230   46.5400 C   0  0  0  0  0  0  0  0  0  0  0  0
   46.6770   31.5330   45.4380 C   0  0  0  0  0  0  0  0  0  0  0  0
   47.6830   30.6330   45.4230 N   0  0  0  0  0  0  0  0  0  0  0  0
   47.8930   29.7970   46.4870 C   0  0  0  0  0  0  0  0  0  0  0  0
   47.0860   29.8720   47.5660 N   0  0  0  0  0  0  0  0  0  0  0  0
   45.1930   30.8250   48.7870 C   0  0  0  0  0  0  0  0  0  0  0  0
   45.9400   31.2930   49.8440 F   0  0  0  0  0  0  0  0  0  0  0  0
   44.7940   29.5370   49.0760 F   0  0  0  0  0  0  0  0  0  0  0  0
   44.1320   31.6630   48.5680 F   0  0  0  0  0  0  0  0  0  0  0  0
   47.6280   33.8850   42.5520 C   0  0  0  0  0  0  0  0  0  0  0  0
   46.9840   33.3390   41.4460 C   0  0  0  0  0  0  0  0  0  0  0  0
   47.5050   34.0920   40.4140 C   0  0  0  0  0  0  0  0  0  0  0  0
   48.4080   35.0350   40.8850 C   0  0  0  0  0  0  0  0  0  0  0  0
   48.4200   34.8380   42.1790 O   0  0  0  0  0  0  0  0  0  0  0  0
   49.1430   35.9770   40.1770 O   0  0  0  0  0  0  0  0  0  0  0  0
   46.1483   31.5962   43.6138 H   0  0  0  0  0  0  0  0  0  0  0  0
   45.2830   34.2675   43.9005 H   0  0  0  0  0  0  0  0  0  0  0  0
   45.6153   34.3116   45.4126 H   0  0  0  0  0  0  0  0  0  0  0  0
   48.5215   33.6784   44.2899 H   0  0  0  0  0  0  0  0  0  0  0  0
   45.0126   32.3480   46.5784 H   0  0  0  0  0  0  0  0  0  0  0  0
   48.7159   29.0675   46.4623 H   0  0  0  0  0  0  0  0  0  0  0  0
   46.2505   32.5202   41.4051 H   0  0  0  0  0  0  0  0  0  0  0  0
   47.2391   33.9618   39.3546 H   0  0  0  0  0  0  0  0  0  0  0  0
   49.7547   36.5901   40.6567 H   0  0  0  0  0  0  0  0  0  0  0  0
  1  2  1  0
  1  6  1  0
  3  1  1  0
  3  2  1  0
  4 10  1  0
  5  4  2  0
  6  5  1  0
  7  6  2  0
  7  8  1  0
  8  9  2  0
  9  4  1  0
 10 12  1  0
 10 11  1  0
 13 10  1  0
 14  3  1  0
 15 14  2  0
 16 17  2  0
 16 15  1  0
 17 18  1  0
 18 14  1  0
 19 17  1  0
  1 20  1  6
  2 21  1  0
  2 22  1  0
  3 23  1  1
  5 24  1  0
  8 25  1  0
 15 26  1  0
 16 27  1  0
 19 28  1  0
M  ISO  8  20  13  21  13  22  13  23  13  24  14  25  14  26  14  27  14
M  ISO  1  28   3
M  END
>  <minimizedAffinity>  (1) 
-5.16079521

>  <minimizedRMSD>  (1) 
0.311398894

$$$$
