
     RDKit          3D

 29 31  0  0  1  0  0  0  0  0999 V2000
   46.3480   32.3950   44.3810 C   0  0  1  0  0  0  0  0  0  0  0  0
   45.9880   33.7760   44.7620 C   0  0  0  0  0  0  0  0  0  0  0  0
   47.3560   33.4030   44.0710 C   0  0  2  0  0  0  0  0  0  0  0  0
   46.0600   30.6000   47.6680 C   0  0  0  0  0  0  0  0  0  0  0  0
   45.7680   31.5110   46.6650 C   0  0  0  0  0  0  0  0  0  0  0  0
   46.5600   31.4550   45.5240 C   0  0  0  0  0  0  0  0  0  0  0  0
   47.5550   30.5440   45.4390 N   0  0  0  0  0  0  0  0  0  0  0  0
   47.8040   29.6710   46.4500 C   0  0  0  0  0  0  0  0  0  0  0  0
   47.0430   29.7090   47.5690 N   0  0  0  0  0  0  0  0  0  0  0  0
   45.2150   30.6350   48.9080 C   0  0  0  0  0  0  0  0  0  0  0  0
   46.0400   30.9490   49.9640 F   0  0  0  0  0  0  0  0  0  0  0  0
   44.7270   29.3610   49.1080 F   0  0  0  0  0  0  0  0  0  0  0  0
   44.2190   31.5670   48.8080 F   0  0  0  0  0  0  0  0  0  0  0  0
   47.4190   33.8580   42.6550 C   0  0  0  0  0  0  0  0  0  0  0  0
   46.5660   33.5030   41.6150 C   0  0  0  0  0  0  0  0  0  0  0  0
   47.0700   34.1980   40.5430 C   0  0  0  0  0  0  0  0  0  0  0  0
   48.1950   34.9430   40.9460 C   0  0  0  0  0  0  0  0  0  0  0  0
   48.3260   34.6780   42.2190 O   0  0  0  0  0  0  0  0  0  0  0  0
   49.0520   35.8110   40.2140 N   0  0  0  0  0  0  0  0  0  0  0  0
   45.8895   31.6189   43.7505 H   0  0  0  0  0  0  0  0  0  0  0  0
   45.2131   34.3245   44.2063 H   0  0  0  0  0  0  0  0  0  0  0  0
   45.6765   34.2915   45.6824 H   0  0  0  0  0  0  0  0  0  0  0  0
   48.4300   33.5085   44.2840 H   0  0  0  0  0  0  0  0  0  0  0  0
   44.9514   32.2409   46.7667 H   0  0  0  0  0  0  0  0  0  0  0  0
   48.6190   28.9378   46.3598 H   0  0  0  0  0  0  0  0  0  0  0  0
   45.6975   32.8285   41.6442 H   0  0  0  0  0  0  0  0  0  0  0  0
   46.6573   34.1760   39.5236 H   0  0  0  0  0  0  0  0  0  0  0  0
   49.8392   36.2770   40.6873 H   0  0  0  0  0  0  0  0  0  0  0  0
   48.8853   35.9735   39.2107 H   0  0  0  0  0  0  0  0  0  0  0  0
  1  2  1  0
  1  6  1  0
  3  1  1  0
  3  2  1  0
  4 10  1  0
  5  4  2  0
  6  5  1  0
  7  6  2  0
  7  8  1  0
  8  9  2  0
  9  4  1  0
 10 12  1  0
 10 11  1  0
 13 10  1  0
 14  3  1  0
 15 14  2  0
 16 17  2  0
 16 15  1  0
 17 18  1  0
 18 14  1  0
 19 17  1  0
  1 20  1  6
  2 21  1  0
  2 22  1  0
  3 23  1  1
  5 24  1  0
  8 25  1  0
 15 26  1  0
 16 27  1  0
 19 28  1  0
 19 29  1  0
M  ISO  8  20  13  21  13  22  13  23  13  24  14  25  14  26  14  27  14
M  END
>  <minimizedAffinity>  (1) 
-5.01827621

>  <minimizedRMSD>  (1) 
0.498486996

$$$$
