
     RDKit          3D

 33 35  0  0  1  0  0  0  0  0999 V2000
   46.1640   30.9370   44.1890 C   0  0  1  0  0  0  0  0  0  0  0  0
   45.0770   31.4990   43.3610 C   0  0  0  0  0  0  0  0  0  0  0  0
   46.2650   32.3810   43.9160 C   0  0  2  0  0  0  0  0  0  0  0  0
   45.6230   30.7080   47.8990 C   0  0  0  0  0  0  0  0  0  0  0  0
   46.0370   31.2280   46.6860 C   0  0  0  0  0  0  0  0  0  0  0  0
   45.7560   30.4780   45.5500 C   0  0  0  0  0  0  0  0  0  0  0  0
   45.1040   29.2990   45.6690 N   0  0  0  0  0  0  0  0  0  0  0  0
   44.7150   28.8260   46.8840 C   0  0  0  0  0  0  0  0  0  0  0  0
   44.9810   29.5430   47.9980 N   0  0  0  0  0  0  0  0  0  0  0  0
   45.9050   31.5050   49.1380 C   0  0  0  0  0  0  0  0  0  0  0  0
   47.0600   31.0050   49.6940 F   0  0  0  0  0  0  0  0  0  0  0  0
   44.8710   31.2690   50.0190 F   0  0  0  0  0  0  0  0  0  0  0  0
   46.0590   32.8290   48.8480 F   0  0  0  0  0  0  0  0  0  0  0  0
   47.2250   32.7540   42.8290 C   0  0  0  0  0  0  0  0  0  0  0  0
   48.1200   31.9230   42.1580 C   0  0  0  0  0  0  0  0  0  0  0  0
   48.7170   32.8190   41.2820 C   0  0  0  0  0  0  0  0  0  0  0  0
   48.1990   34.0970   41.4350 C   0  0  0  0  0  0  0  0  0  0  0  0
   47.3150   33.9660   42.3800 O   0  0  0  0  0  0  0  0  0  0  0  0
   48.6250   35.2830   40.6470 C   0  0  0  0  0  0  0  0  0  0  0  0
   49.2840   36.2970   41.5500 C   0  0  0  0  0  0  0  0  0  0  0  0
   46.8916   30.1221   44.0607 H   0  0  0  0  0  0  0  0  0  0  0  0
   44.0629   31.6082   43.7728 H   0  0  0  0  0  0  0  0  0  0  0  0
   44.6426   31.2862   42.3731 H   0  0  0  0  0  0  0  0  0  0  0  0
   46.3899   33.2798   44.5377 H   0  0  0  0  0  0  0  0  0  0  0  0
   46.5646   32.1912   46.6232 H   0  0  0  0  0  0  0  0  0  0  0  0
   44.1864   27.8643   46.9591 H   0  0  0  0  0  0  0  0  0  0  0  0
   48.3039   30.8463   42.2877 H   0  0  0  0  0  0  0  0  0  0  0  0
   49.5009   32.5501   40.5587 H   0  0  0  0  0  0  0  0  0  0  0  0
   49.3392   34.9675   39.8722 H   0  0  0  0  0  0  0  0  0  0  0  0
   47.7410   35.7397   40.1780 H   0  0  0  0  0  0  0  0  0  0  0  0
   49.1060   36.0231   42.6004 H   0  0  0  0  0  0  0  0  0  0  0  0
   50.3662   36.3141   41.3539 H   0  0  0  0  0  0  0  0  0  0  0  0
   48.8601   37.2929   41.3539 H   0  0  0  0  0  0  0  0  0  0  0  0
  1  6  1  0
  2  3  1  0
  2  1  1  0
  3  1  1  0
  4  9  2  0
  4 10  1  0
  5  4  1  0
  6  7  1  0
  6  5  2  0
  7  8  2  0
  8  9  1  0
 10 11  1  0
 10 12  1  0
 13 10  1  0
 14  3  1  0
 15 14  2  0
 16 17  2  0
 16 15  1  0
 17 18  1  0
 18 14  1  0
 19 17  1  0
 19 20  1  0
  1 21  1  6
  2 22  1  0
  2 23  1  0
  3 24  1  1
  5 25  1  0
  8 26  1  0
 15 27  1  0
 16 28  1  0
 19 29  1  0
 19 30  1  0
 20 31  1  0
 20 32  1  0
 20 33  1  0
M  ISO  8  21  13  22  13  23  13  24  13  25  14  26  14  27  14  28  14
M  ISO  5  29   8  30   8  31   8  32   8  33   8
M  END
>  <minimizedAffinity>  (1) 
-4.85181093

>  <minimizedRMSD>  (1) 
1.93941629

$$$$
