
     RDKit          3D

 43 46  0  0  1  0  0  0  0  0999 V2000
   46.3380   30.7390   44.0660 C   0  0  1  0  0  0  0  0  0  0  0  0
   45.5280   31.6930   43.2810 C   0  0  0  0  0  0  0  0  0  0  0  0
   46.9990   32.0130   43.7560 C   0  0  2  0  0  0  0  0  0  0  0  0
   45.6380   30.9700   47.7480 C   0  0  0  0  0  0  0  0  0  0  0  0
   46.1490   31.3320   46.5060 C   0  0  0  0  0  0  0  0  0  0  0  0
   45.8470   30.4720   45.4500 C   0  0  0  0  0  0  0  0  0  0  0  0
   45.1020   29.3630   45.6590 N   0  0  0  0  0  0  0  0  0  0  0  0
   44.6260   29.0560   46.9040 C   0  0  0  0  0  0  0  0  0  0  0  0
   44.9060   29.8760   47.9450 N   0  0  0  0  0  0  0  0  0  0  0  0
   45.9300   31.8750   48.9060 C   0  0  0  0  0  0  0  0  0  0  0  0
   45.2020   31.4280   49.9830 F   0  0  0  0  0  0  0  0  0  0  0  0
   45.4860   33.1360   48.5690 F   0  0  0  0  0  0  0  0  0  0  0  0
   47.2660   31.8620   49.2230 F   0  0  0  0  0  0  0  0  0  0  0  0
   47.9790   31.9620   42.6240 C   0  0  0  0  0  0  0  0  0  0  0  0
   49.1560   31.2230   42.5460 C   0  0  0  0  0  0  0  0  0  0  0  0
   49.6280   31.5680   41.2960 C   0  0  0  0  0  0  0  0  0  0  0  0
   48.7710   32.4630   40.6690 C   0  0  0  0  0  0  0  0  0  0  0  0
   47.8070   32.6460   41.5360 O   0  0  0  0  0  0  0  0  0  0  0  0
   48.8640   33.1020   39.3400 C   0  0  0  0  0  0  0  0  0  0  0  0
   47.5750   33.7770   38.9360 C   0  0  0  0  0  0  0  0  0  0  0  0
   47.3300   33.7030   37.4580 C   0  0  0  0  0  0  0  0  0  0  0  0
   47.1660   32.2570   37.0890 C   0  0  0  0  0  0  0  0  0  0  0  0
   48.2680   31.3780   37.5990 C   0  0  0  0  0  0  0  0  0  0  0  0
   49.3630   32.1380   38.3110 C   0  0  0  0  0  0  0  0  0  0  0  0
   46.6704   29.7003   43.9222 H   0  0  0  0  0  0  0  0  0  0  0  0
   44.6701   32.2056   43.7405 H   0  0  0  0  0  0  0  0  0  0  0  0
   44.9905   31.6754   42.3214 H   0  0  0  0  0  0  0  0  0  0  0  0
   47.5091   32.7869   44.3484 H   0  0  0  0  0  0  0  0  0  0  0  0
   46.7537   32.2400   46.3652 H   0  0  0  0  0  0  0  0  0  0  0  0
   44.0208   28.1506   47.0585 H   0  0  0  0  0  0  0  0  0  0  0  0
   49.5959   30.5408   43.2884 H   0  0  0  0  0  0  0  0  0  0  0  0
   50.5598   31.1848   40.8546 H   0  0  0  0  0  0  0  0  0  0  0  0
   49.6095   33.9077   39.4117 H   0  0  0  0  0  0  0  0  0  0  0  0
   46.7403   33.2857   39.4575 H   0  0  0  0  0  0  0  0  0  0  0  0
   47.6522   34.8394   39.2105 H   0  0  0  0  0  0  0  0  0  0  0  0
   46.4165   34.2599   37.2023 H   0  0  0  0  0  0  0  0  0  0  0  0
   48.1731   34.1456   36.9073 H   0  0  0  0  0  0  0  0  0  0  0  0
   46.2136   31.8977   37.5060 H   0  0  0  0  0  0  0  0  0  0  0  0
   47.1904   32.1999   35.9908 H   0  0  0  0  0  0  0  0  0  0  0  0
   47.8361   30.6497   38.3012 H   0  0  0  0  0  0  0  0  0  0  0  0
   48.7262   30.8925   36.7247 H   0  0  0  0  0  0  0  0  0  0  0  0
   50.0215   31.4109   38.8087 H   0  0  0  0  0  0  0  0  0  0  0  0
   49.8875   32.7308   37.5472 H   0  0  0  0  0  0  0  0  0  0  0  0
  1  6  1  0
  2  3  1  0
  2  1  1  0
  3  1  1  0
  4  9  2  0
  4 10  1  0
  5  4  1  0
  6  7  1  0
  6  5  2  0
  7  8  2  0
  8  9  1  0
 10 13  1  0
 10 11  1  0
 12 10  1  0
 14  3  1  0
 15 14  2  0
 16 15  1  0
 17 16  2  0
 17 18  1  0
 18 14  1  0
 19 17  1  0
 20 19  1  0
 21 20  1  0
 22 21  1  0
 22 23  1  0
 23 24  1  0
 24 19  1  0
  1 25  1  6
  2 26  1  0
  2 27  1  0
  3 28  1  1
  5 29  1  0
  8 30  1  0
 15 31  1  0
 16 32  1  0
 19 33  1  0
 20 34  1  0
 20 35  1  0
 21 36  1  0
 21 37  1  0
 22 38  1  0
 22 39  1  0
 23 40  1  0
 23 41  1  0
 24 42  1  0
 24 43  1  0
M  ISO  8  25  13  26  13  27  13  28  13  29  14  30  14  31  14  32  14
M  ISO  8  33  13  34  13  35  13  36  13  37  13  38  13  39  13  40  13
M  ISO  3  41  13  42  13  43  13
M  END
>  <minimizedAffinity>  (1) 
-4.72981215

>  <minimizedRMSD>  (1) 
3.94160414

$$$$
