
     RDKit          3D

 33 36  0  0  1  0  0  0  0  0999 V2000
   46.9740   31.1330   44.2080 C   0  0  1  0  0  0  0  0  0  0  0  0
   46.7790   32.5430   43.8140 C   0  0  0  0  0  0  0  0  0  0  0  0
   48.0900   31.7320   43.4700 C   0  0  2  0  0  0  0  0  0  0  0  0
   46.4110   31.1250   47.9130 C   0  0  0  0  0  0  0  0  0  0  0  0
   46.1840   31.4050   46.5790 C   0  0  0  0  0  0  0  0  0  0  0  0
   47.1100   30.8840   45.6720 C   0  0  0  0  0  0  0  0  0  0  0  0
   48.1540   30.1510   46.1200 N   0  0  0  0  0  0  0  0  0  0  0  0
   48.3280   29.9060   47.4460 C   0  0  0  0  0  0  0  0  0  0  0  0
   47.4460   30.3990   48.3410 N   0  0  0  0  0  0  0  0  0  0  0  0
   45.4350   31.6590   48.9190 C   0  0  0  0  0  0  0  0  0  0  0  0
   45.8830   32.8920   49.3270 F   0  0  0  0  0  0  0  0  0  0  0  0
   45.4420   30.8010   49.9990 F   0  0  0  0  0  0  0  0  0  0  0  0
   44.1860   31.7860   48.3650 F   0  0  0  0  0  0  0  0  0  0  0  0
   48.1610   31.3870   42.0190 C   0  0  0  0  0  0  0  0  0  0  0  0
   48.1700   30.1210   41.4430 C   0  0  0  0  0  0  0  0  0  0  0  0
   48.2400   30.4170   40.0940 C   0  0  0  0  0  0  0  0  0  0  0  0
   48.2700   31.8030   39.8900 C   0  0  0  0  0  0  0  0  0  0  0  0
   48.2200   32.2910   41.0930 O   0  0  0  0  0  0  0  0  0  0  0  0
   48.3420   32.5210   38.6160 C   0  0  0  0  0  0  0  0  0  0  0  0
   48.4700   31.7980   37.3720 C   0  0  0  0  0  0  0  0  0  0  0  0
   48.5110   33.1770   36.1380 S   0  0  0  0  0  0  0  0  0  0  0  0
   48.3490   34.4680   37.5150 C   0  0  0  0  0  0  0  0  0  0  0  0
   48.2950   33.8440   38.5240 N   0  0  0  0  0  0  0  0  0  0  0  0
   46.4129   30.2013   44.0433 H   0  0  0  0  0  0  0  0  0  0  0  0
   46.0625   32.8067   43.0221 H   0  0  0  0  0  0  0  0  0  0  0  0
   46.5406   33.4854   44.3288 H   0  0  0  0  0  0  0  0  0  0  0  0
   49.1723   31.8205   43.6456 H   0  0  0  0  0  0  0  0  0  0  0  0
   45.3225   32.0045   46.2497 H   0  0  0  0  0  0  0  0  0  0  0  0
   49.1852   29.3077   47.7885 H   0  0  0  0  0  0  0  0  0  0  0  0
   48.1314   29.1375   41.9341 H   0  0  0  0  0  0  0  0  0  0  0  0
   48.2683   29.6665   39.2903 H   0  0  0  0  0  0  0  0  0  0  0  0
   48.5279   30.7127   37.2025 H   0  0  0  0  0  0  0  0  0  0  0  0
   48.3127   35.5618   37.4037 H   0  0  0  0  0  0  0  0  0  0  0  0
  1  6  1  0
  2  1  1  0
  3  2  1  0
  3  1  1  0
  4  9  2  0
  4 10  1  0
  5  4  1  0
  6  7  1  0
  6  5  2  0
  7  8  2  0
  8  9  1  0
 10 11  1  0
 10 12  1  0
 13 10  1  0
 14  3  1  0
 15 14  2  0
 16 15  1  0
 17 16  2  0
 17 18  1  0
 18 14  1  0
 19 17  1  0
 20 19  2  0
 21 20  1  0
 21 22  1  0
 22 23  2  0
 23 19  1  0
  1 24  1  6
  2 25  1  0
  2 26  1  0
  3 27  1  1
  5 28  1  0
  8 29  1  0
 15 30  1  0
 16 31  1  0
 20 32  1  0
 22 33  1  0
M  ISO  8  24  13  25  13  26  13  27  13  28  14  29  14  30  14  31  14
M  ISO  2  32  14  33  14
M  END
>  <minimizedAffinity>  (1) 
-4.5225091

>  <minimizedRMSD>  (1) 
3.05575776

$$$$
