
     RDKit          3D

 16 16  0  0  0  0  0  0  0  0999 V2000
   44.8910   34.9910   45.0790 C   0  0  0  0  0  0  0  0  0  0  0  0
   45.4140   35.2160   43.7890 C   0  0  0  0  0  0  0  0  0  0  0  0
   46.4680   34.3990   43.3770 C   0  0  0  0  0  0  0  0  0  0  0  0
   46.9370   33.4350   44.2280 N   0  0  0  0  0  0  0  0  0  0  0  0
   46.4020   33.2570   45.4550 C   0  0  0  0  0  0  0  0  0  0  0  0
   45.3860   34.0280   45.8790 N   0  0  0  0  0  0  0  0  0  0  0  0
   47.0000   34.6550   42.0390 C   0  0  0  0  0  0  0  0  0  0  0  0
   47.9450   33.6930   41.7290 F   0  0  0  0  0  0  0  0  0  0  0  0
   47.7020   35.8590   42.1200 F   0  0  0  0  0  0  0  0  0  0  0  0
   46.0630   34.6720   41.0650 F   0  0  0  0  0  0  0  0  0  0  0  0
   44.8770   36.2750   42.8970 C   0  0  0  0  0  0  0  0  0  0  0  0
   44.0606   35.6159   45.4395 H   0  0  0  0  0  0  0  0  0  0  0  0
   46.8019   32.4727   46.1145 H   0  0  0  0  0  0  0  0  0  0  0  0
   44.4627   37.0920   43.5059 H   0  0  0  0  0  0  0  0  0  0  0  0
   45.6863   36.6649   42.2622 H   0  0  0  0  0  0  0  0  0  0  0  0
   44.0842   35.8525   42.2622 H   0  0  0  0  0  0  0  0  0  0  0  0
  1  6  2  0
  2  1  1  0
  3  2  2  0
  3  4  1  0
  4  5  2  0
  5  6  1  0
  7  9  1  0
  7  3  1  0
  8  7  1  0
 10  7  1  0
 11  2  1  0
  1 12  1  0
  5 13  1  0
 11 14  1  0
 11 15  1  0
 11 16  1  0
M  ISO  5  12  14  13  14  14   8  15   8  16   8
M  END
>  <minimizedAffinity>  (1) 
-3.82190847

>  <minimizedRMSD>  (1) 
0.850097299

$$$$
