
     RDKit          3D

 22 23  0  0  0  0  0  0  0  0999 V2000
   45.3210   33.4050   46.3860 C   0  0  0  0  0  0  0  0  0  0  0  0
   45.8680   33.2090   45.0980 C   0  0  0  0  0  0  0  0  0  0  0  0
   46.9510   32.3400   45.0440 C   0  0  0  0  0  0  0  0  0  0  0  0
   47.4020   31.7520   46.2030 N   0  0  0  0  0  0  0  0  0  0  0  0
   46.8390   31.9810   47.4020 C   0  0  0  0  0  0  0  0  0  0  0  0
   45.7830   32.8220   47.4840 N   0  0  0  0  0  0  0  0  0  0  0  0
   45.2670   33.9280   43.9880 C   0  0  0  0  0  0  0  0  0  0  0  0
   45.4690   35.2770   43.8290 C   0  0  0  0  0  0  0  0  0  0  0  0
   44.9250   36.0130   42.8000 C   0  0  0  0  0  0  0  0  0  0  0  0
   44.1260   35.4050   41.8520 C   0  0  0  0  0  0  0  0  0  0  0  0
   43.9300   34.0710   42.0160 C   0  0  0  0  0  0  0  0  0  0  0  0
   44.4840   33.4320   43.0250 N   0  0  0  0  0  0  0  0  0  0  0  0
   47.5330   32.1070   43.7260 C   0  0  0  0  0  0  0  0  0  0  0  0
   48.6320   31.2570   43.8300 F   0  0  0  0  0  0  0  0  0  0  0  0
   48.0520   33.3070   43.3050 F   0  0  0  0  0  0  0  0  0  0  0  0
   46.6640   31.5260   42.8400 F   0  0  0  0  0  0  0  0  0  0  0  0
   44.4597   34.0822   46.4839 H   0  0  0  0  0  0  0  0  0  0  0  0
   47.2321   31.4907   48.3048 H   0  0  0  0  0  0  0  0  0  0  0  0
   46.1000   35.7983   44.5639 H   0  0  0  0  0  0  0  0  0  0  0  0
   45.1282   37.0920   42.7328 H   0  0  0  0  0  0  0  0  0  0  0  0
   43.6773   35.9647   41.0181 H   0  0  0  0  0  0  0  0  0  0  0  0
   43.3030   33.5198   41.2997 H   0  0  0  0  0  0  0  0  0  0  0  0
  1  6  2  0
  2  1  1  0
  3  2  2  0
  3  4  1  0
  4  5  2  0
  5  6  1  0
  7  2  1  0
  8  7  2  0
  9  8  1  0
 10 11  1  0
 10  9  2  0
 11 12  2  0
 12  7  1  0
 13 14  1  0
 13  3  1  0
 15 13  1  0
 16 13  1  0
  1 17  1  0
  5 18  1  0
  8 19  1  0
  9 20  1  0
 10 21  1  0
 11 22  1  0
M  ISO  6  17  14  18  14  19  14  20  14  21  14  22  14
M  END
>  <minimizedAffinity>  (1) 
-3.80199933

>  <minimizedRMSD>  (1) 
3.45989847

$$$$
