
     RDKit          3D

 21 22  0  0  0  0  0  0  0  0999 V2000
   45.3360   33.3950   46.3820 C   0  0  0  0  0  0  0  0  0  0  0  0
   45.8710   33.1900   45.0830 C   0  0  0  0  0  0  0  0  0  0  0  0
   46.9390   32.3020   45.0380 C   0  0  0  0  0  0  0  0  0  0  0  0
   47.3800   31.7110   46.2000 N   0  0  0  0  0  0  0  0  0  0  0  0
   46.8240   31.9510   47.4010 C   0  0  0  0  0  0  0  0  0  0  0  0
   45.7920   32.8030   47.4790 N   0  0  0  0  0  0  0  0  0  0  0  0
   45.2770   33.9180   43.9800 C   0  0  0  0  0  0  0  0  0  0  0  0
   45.4880   35.2620   43.8290 C   0  0  0  0  0  0  0  0  0  0  0  0
   44.9610   36.0150   42.8200 C   0  0  0  0  0  0  0  0  0  0  0  0
   44.1630   35.4220   41.8820 N   0  0  0  0  0  0  0  0  0  0  0  0
   43.9400   34.0950   42.0120 C   0  0  0  0  0  0  0  0  0  0  0  0
   44.4900   33.4250   43.0230 N   0  0  0  0  0  0  0  0  0  0  0  0
   47.5140   32.0700   43.7110 C   0  0  0  0  0  0  0  0  0  0  0  0
   48.6140   31.2100   43.8240 F   0  0  0  0  0  0  0  0  0  0  0  0
   48.0540   33.2720   43.3030 F   0  0  0  0  0  0  0  0  0  0  0  0
   46.6520   31.5020   42.8370 F   0  0  0  0  0  0  0  0  0  0  0  0
   44.4890   34.0891   46.4860 H   0  0  0  0  0  0  0  0  0  0  0  0
   47.2098   31.4562   48.3045 H   0  0  0  0  0  0  0  0  0  0  0  0
   46.1242   35.7686   44.5697 H   0  0  0  0  0  0  0  0  0  0  0  0
   45.1770   37.0920   42.7620 H   0  0  0  0  0  0  0  0  0  0  0  0
   43.3051   33.5693   41.2836 H   0  0  0  0  0  0  0  0  0  0  0  0
  1  6  2  0
  2  1  1  0
  3  2  2  0
  3  4  1  0
  4  5  2  0
  5  6  1  0
  7  2  1  0
  8  7  2  0
  9  8  1  0
 10 11  1  0
 10  9  2  0
 11 12  2  0
 12  7  1  0
 13 14  1  0
 13  3  1  0
 15 13  1  0
 16 13  1  0
  1 17  1  0
  5 18  1  0
  8 19  1  0
  9 20  1  0
 11 21  1  0
M  ISO  5  17  14  18  14  19  14  20  14  21  14
M  END
>  <minimizedAffinity>  (1) 
-3.61256456

>  <minimizedRMSD>  (1) 
3.46675968

$$$$
