
     RDKit          3D

 20 21  0  0  0  0  0  0  0  0999 V2000
   45.3330   33.6180   46.0400 C   0  0  0  0  0  0  0  0  0  0  0  0
   45.9250   33.5100   44.7590 C   0  0  0  0  0  0  0  0  0  0  0  0
   47.0260   32.6890   44.6580 C   0  0  0  0  0  0  0  0  0  0  0  0
   47.4610   32.0460   45.7910 N   0  0  0  0  0  0  0  0  0  0  0  0
   46.8680   32.1790   46.9870 C   0  0  0  0  0  0  0  0  0  0  0  0
   45.7950   32.9740   47.0990 N   0  0  0  0  0  0  0  0  0  0  0  0
   45.2920   34.2950   43.7360 C   0  0  0  0  0  0  0  0  0  0  0  0
   45.3560   35.6700   43.5720 C   0  0  0  0  0  0  0  0  0  0  0  0
   44.6680   36.1910   42.5280 C   0  0  0  0  0  0  0  0  0  0  0  0
   43.9240   35.3750   41.6570 C   0  0  0  0  0  0  0  0  0  0  0  0
   44.1870   33.7340   42.3210 S   0  0  0  0  0  0  0  0  0  0  0  0
   47.6310   32.5680   43.3370 C   0  0  0  0  0  0  0  0  0  0  0  0
   48.7800   31.7720   43.4240 F   0  0  0  0  0  0  0  0  0  0  0  0
   48.0900   33.8100   42.9880 F   0  0  0  0  0  0  0  0  0  0  0  0
   46.8140   31.9700   42.4200 F   0  0  0  0  0  0  0  0  0  0  0  0
   44.4514   34.2648   46.1600 H   0  0  0  0  0  0  0  0  0  0  0  0
   47.2576   31.6423   47.8646 H   0  0  0  0  0  0  0  0  0  0  0  0
   45.9368   36.3065   44.2558 H   0  0  0  0  0  0  0  0  0  0  0  0
   44.6917   37.2774   42.3575 H   0  0  0  0  0  0  0  0  0  0  0  0
   43.3270   35.6724   40.7823 H   0  0  0  0  0  0  0  0  0  0  0  0
  1  6  2  0
  2  1  1  0
  3  2  2  0
  3  4  1  0
  4  5  2  0
  5  6  1  0
  7  2  1  0
  8  7  2  0
  9  8  1  0
 10 11  1  0
 10  9  2  0
 11  7  1  0
 12 13  1  0
 12  3  1  0
 14 12  1  0
 15 12  1  0
  1 16  1  0
  5 17  1  0
  8 18  1  0
  9 19  1  0
 10 20  1  0
M  ISO  5  16  14  17  14  18  14  19  14  20  14
M  END
>  <minimizedAffinity>  (1) 
-3.49958253

>  <minimizedRMSD>  (1) 
2.96151638

$$$$
