
     RDKit          3D

 42 44  0  0  1  0  0  0  0  0999 V2000
   48.5510   32.0810   42.8590 C   0  0  0  0  0  0  0  0  0  0  0  0
   48.0410   33.2950   43.0590 C   0  0  0  0  0  0  0  0  0  0  0  0
   49.4630   31.9100   41.7340 C   0  0  0  0  0  0  0  0  0  0  0  0
   50.8520   31.9430   42.0070 C   0  0  0  0  0  0  0  0  0  0  0  0
   51.7840   31.7930   40.9740 C   0  0  0  0  0  0  0  0  0  0  0  0
   51.2730   31.6180   39.7380 N   0  0  0  0  0  0  0  0  0  0  0  0
   49.9420   31.5890   39.4970 C   0  0  0  0  0  0  0  0  0  0  0  0
   49.0620   31.7310   40.4730 N   0  0  0  0  0  0  0  0  0  0  0  0
   49.4100   31.4030   38.0950 C   0  0  2  0  0  0  0  0  0  0  0  0
   50.2940   31.3480   36.9360 C   0  0  0  0  0  0  0  0  0  0  0  0
   49.5010   32.5940   37.1390 C   0  0  1  0  0  0  0  0  0  0  0  0
   48.3510   32.9460   36.2660 C   0  0  0  0  0  0  0  0  0  0  0  0
   48.5680   32.7060   34.8000 C   0  0  0  0  0  0  0  0  0  0  0  0
   47.1060   33.5770   44.1710 C   0  0  0  0  0  0  0  0  0  0  0  0
   44.7690   36.2220   43.4120 C   0  0  1  0  0  0  0  0  0  0  0  0
   45.9620   35.4110   42.8910 C   0  0  0  0  0  0  0  0  0  0  0  0
   45.7900   34.1550   43.6680 C   0  0  2  0  0  0  0  0  0  0  0  0
   44.9120   34.3810   44.6970 O   0  0  0  0  0  0  0  0  0  0  0  0
   44.6940   35.7210   44.8370 C   0  0  0  0  0  0  0  0  0  0  0  0
   45.0420   37.5740   43.3380 O   0  0  0  0  0  0  0  0  0  0  0  0
   48.2938   31.2386   43.5180 H   0  0  0  0  0  0  0  0  0  0  0  0
   48.3229   34.1116   42.3780 H   0  0  0  0  0  0  0  0  0  0  0  0
   51.2014   32.0878   43.0399 H   0  0  0  0  0  0  0  0  0  0  0  0
   52.8681   31.8164   41.1588 H   0  0  0  0  0  0  0  0  0  0  0  0
   48.6231   30.7350   38.4751 H   0  0  0  0  0  0  0  0  0  0  0  0
   50.0493   30.6791   36.0977 H   0  0  0  0  0  0  0  0  0  0  0  0
   51.3657   31.1389   36.8032 H   0  0  0  0  0  0  0  0  0  0  0  0
   49.7356   33.6660   37.2158 H   0  0  0  0  0  0  0  0  0  0  0  0
   47.4851   32.3472   36.5849 H   0  0  0  0  0  0  0  0  0  0  0  0
   48.1999   34.0296   36.3801 H   0  0  0  0  0  0  0  0  0  0  0  0
   49.3002   31.8962   34.6655 H   0  0  0  0  0  0  0  0  0  0  0  0
   47.6152   32.4206   34.3302 H   0  0  0  0  0  0  0  0  0  0  0  0
   48.9476   33.6253   34.3302 H   0  0  0  0  0  0  0  0  0  0  0  0
   46.9009   32.6405   44.7104 H   0  0  0  0  0  0  0  0  0  0  0  0
   47.5753   34.3191   44.8336 H   0  0  0  0  0  0  0  0  0  0  0  0
   43.8285   36.1014   42.8544 H   0  0  0  0  0  0  0  0  0  0  0  0
   45.8907   35.2324   41.8079 H   0  0  0  0  0  0  0  0  0  0  0  0
   46.9399   35.8990   43.0158 H   0  0  0  0  0  0  0  0  0  0  0  0
   45.3783   33.3915   42.9916 H   0  0  0  0  0  0  0  0  0  0  0  0
   45.4707   36.1858   45.4621 H   0  0  0  0  0  0  0  0  0  0  0  0
   43.7413   35.9583   45.3330 H   0  0  0  0  0  0  0  0  0  0  0  0
   45.1171   37.9460   44.2524 H   0  0  0  0  0  0  0  0  0  0  0  0
  1  2  2  0
  2 14  1  0
  3  4  2  0
  3  1  1  0
  5  4  1  0
  6  5  2  0
  7  6  1  0
  7  8  2  0
  8  3  1  0
  9  7  1  0
 10 11  1  0
 10  9  1  0
 11  9  1  0
 12 11  1  0
 13 12  1  0
 15 19  1  0
 16 15  1  0
 16 17  1  0
 17 14  1  0
 17 18  1  0
 18 19  1  0
 20 15  1  0
  1 21  1  0
  2 22  1  0
  4 23  1  0
  5 24  1  0
  9 25  1  1
 10 26  1  0
 10 27  1  0
 11 28  1  1
 12 29  1  0
 12 30  1  0
 13 31  1  0
 13 32  1  0
 13 33  1  0
 14 34  1  0
 14 35  1  0
 15 36  1  6
 16 37  1  0
 16 38  1  0
 17 39  1  6
 19 40  1  0
 19 41  1  0
 20 42  1  0
M  ISO  8  23  14  24  14  25  13  26  13  27  13  28  13  29   8  30   8
M  ISO  8  31   8  32   8  33   8  34   8  35   8  36  13  37  13  38  13
M  ISO  4  39  13  40  13  41  13  42   3
M  END
>  <minimizedAffinity>  (1) 
-4.59161997

>  <minimizedRMSD>  (1) 
0.395115703

$$$$
