
     RDKit          3D

 22 22  0  0  0  0  0  0  0  0999 V2000
   44.7980   35.1710   45.5330 C   0  0  0  0  0  0  0  0  0  0  0  0
   45.1950   35.4720   44.2320 C   0  0  0  0  0  0  0  0  0  0  0  0
   45.9450   34.5120   43.5720 C   0  0  0  0  0  0  0  0  0  0  0  0
   46.2510   33.3470   44.2160 N   0  0  0  0  0  0  0  0  0  0  0  0
   45.8450   33.1060   45.4700 C   0  0  0  0  0  0  0  0  0  0  0  0
   45.1160   34.0180   46.1350 N   0  0  0  0  0  0  0  0  0  0  0  0
   46.3410   34.8440   42.1950 C   0  0  0  0  0  0  0  0  0  0  0  0
   46.9950   33.7530   41.6420 F   0  0  0  0  0  0  0  0  0  0  0  0
   47.2760   35.8370   42.2770 F   0  0  0  0  0  0  0  0  0  0  0  0
   45.2680   35.1260   41.4090 F   0  0  0  0  0  0  0  0  0  0  0  0
   44.8560   36.7600   43.5860 C   0  0  0  0  0  0  0  0  0  0  0  0
   44.9050   37.8200   44.5590 N   0  0  0  0  0  0  0  0  0  0  0  0
   45.3500   39.1550   44.5960 C   0  0  0  0  0  0  0  0  0  0  0  0
   45.5750   39.7090   43.5030 O   0  0  0  0  0  0  0  0  0  0  0  0
   45.5610   39.9200   45.7670 N   0  0  0  0  0  0  0  0  0  0  0  0
   44.2000   35.9093   46.0873 H   0  0  0  0  0  0  0  0  0  0  0  0
   46.1100   32.1563   45.9577 H   0  0  0  0  0  0  0  0  0  0  0  0
   45.5786   36.9674   42.7830 H   0  0  0  0  0  0  0  0  0  0  0  0
   43.8417   36.6997   43.1646 H   0  0  0  0  0  0  0  0  0  0  0  0
   44.5120   37.5245   45.4640 H   0  0  0  0  0  0  0  0  0  0  0  0
   45.8893   40.8935   45.6940 H   0  0  0  0  0  0  0  0  0  0  0  0
   45.3863   39.5035   46.6927 H   0  0  0  0  0  0  0  0  0  0  0  0
  1  6  2  0
  2  1  1  0
  3  4  1  0
  3  2  2  0
  4  5  2  0
  5  6  1  0
  7  9  1  0
  7  3  1  0
  8  7  1  0
 10  7  1  0
 11  2  1  0
 11 12  1  0
 12 13  1  0
 13 15  1  0
 14 13  2  0
  1 16  1  0
  5 17  1  0
 11 18  1  0
 11 19  1  0
 12 20  1  0
 15 21  1  0
 15 22  1  0
M  ISO  4  16  14  17  14  18   8  19   8
M  END
>  <minimizedAffinity>  (1) 
-4.99765253

>  <minimizedRMSD>  (1) 
0.966332197

$$$$
