
     RDKit          3D

 26 26  0  0  0  0  0  0  0  0999 V2000
   44.9990   36.5610   43.4620 C   0  0  0  0  0  0  0  0  0  0  0  0
   44.9980   34.9800   45.3370 C   0  0  0  0  0  0  0  0  0  0  0  0
   45.4030   35.2990   44.0480 C   0  0  0  0  0  0  0  0  0  0  0  0
   46.1860   34.3650   43.3940 C   0  0  0  0  0  0  0  0  0  0  0  0
   46.5280   33.1890   44.0160 N   0  0  0  0  0  0  0  0  0  0  0  0
   46.1110   32.9240   45.2670 C   0  0  0  0  0  0  0  0  0  0  0  0
   45.3400   33.8230   45.9370 N   0  0  0  0  0  0  0  0  0  0  0  0
   46.6010   34.7320   42.0280 C   0  0  0  0  0  0  0  0  0  0  0  0
   47.3400   33.6820   41.4790 F   0  0  0  0  0  0  0  0  0  0  0  0
   47.4680   35.7940   42.1520 F   0  0  0  0  0  0  0  0  0  0  0  0
   45.5430   34.9310   41.2090 F   0  0  0  0  0  0  0  0  0  0  0  0
   44.7620   37.5510   44.5160 N   0  0  0  0  0  0  0  0  0  0  0  0
   45.3410   38.7720   44.0530 C   0  0  0  0  0  0  0  0  0  0  0  0
   45.4180   39.8590   45.1110 C   0  0  0  0  0  0  0  0  0  0  0  0
   44.5570   40.9430   44.6800 N   0  0  0  0  0  0  0  0  0  0  0  0
   45.7943   36.9235   42.7942 H   0  0  0  0  0  0  0  0  0  0  0  0
   44.0705   36.4127   42.8911 H   0  0  0  0  0  0  0  0  0  0  0  0
   44.3746   35.6986   45.8892 H   0  0  0  0  0  0  0  0  0  0  0  0
   46.3942   31.9772   45.7501 H   0  0  0  0  0  0  0  0  0  0  0  0
   43.7510   37.6717   44.6718 H   0  0  0  0  0  0  0  0  0  0  0  0
   46.3611   38.5594   43.7006 H   0  0  0  0  0  0  0  0  0  0  0  0
   44.6874   39.1514   43.2537 H   0  0  0  0  0  0  0  0  0  0  0  0
   45.0733   39.4668   46.0792 H   0  0  0  0  0  0  0  0  0  0  0  0
   46.4533   40.2097   45.2339 H   0  0  0  0  0  0  0  0  0  0  0  0
   44.1736   41.4257   45.5051 H   0  0  0  0  0  0  0  0  0  0  0  0
   45.1014   41.6097   44.1143 H   0  0  0  0  0  0  0  0  0  0  0  0
  1  3  1  0
  1 12  1  0
  2  7  2  0
  3  2  1  0
  4  5  1  0
  4  3  2  0
  5  6  2  0
  6  7  1  0
  8 10  1  0
  8  4  1  0
  9  8  1  0
 11  8  1  0
 13 12  1  0
 13 14  1  0
 15 14  1  0
  1 16  1  0
  1 17  1  0
  2 18  1  0
  6 19  1  0
 12 20  1  0
 13 21  1  0
 13 22  1  0
 14 23  1  0
 14 24  1  0
 15 25  1  0
 15 26  1  0
M  ISO  8  16   8  17   8  18  14  19  14  20   5  21   8  22   8  23   8
M  ISO  3  24   8  25   5  26   5
M  END
>  <minimizedAffinity>  (1) 
-4.25671005

>  <minimizedRMSD>  (1) 
0.405454963

$$$$
