
     RDKit          3D

 31 31  0  0  0  0  0  0  0  0999 V2000
   44.5970   36.2820   43.7230 C   0  0  0  0  0  0  0  0  0  0  0  0
   44.9780   34.7300   45.5710 C   0  0  0  0  0  0  0  0  0  0  0  0
   45.2750   35.1250   44.2750 C   0  0  0  0  0  0  0  0  0  0  0  0
   46.1880   34.3660   43.5800 C   0  0  0  0  0  0  0  0  0  0  0  0
   46.7680   33.2760   44.1920 N   0  0  0  0  0  0  0  0  0  0  0  0
   46.4880   32.9470   45.4580 C   0  0  0  0  0  0  0  0  0  0  0  0
   45.5450   33.6660   46.1550 N   0  0  0  0  0  0  0  0  0  0  0  0
   46.4710   34.8020   42.2090 C   0  0  0  0  0  0  0  0  0  0  0  0
   47.1850   33.8070   41.5540 F   0  0  0  0  0  0  0  0  0  0  0  0
   47.3050   35.8860   42.3140 F   0  0  0  0  0  0  0  0  0  0  0  0
   45.3410   34.9820   41.4970 F   0  0  0  0  0  0  0  0  0  0  0  0
   44.9180   37.4810   44.4970 N   0  0  0  0  0  0  0  0  0  0  0  0
   45.4310   38.4440   43.5510 C   0  0  0  0  0  0  0  0  0  0  0  0
   45.3660   39.8540   44.0630 C   0  0  0  0  0  0  0  0  0  0  0  0
   45.3160   39.8630   45.8680 S   0  0  0  0  0  0  0  0  0  0  0  0
   44.4270   41.2700   46.5470 C   0  0  0  0  0  0  0  0  0  0  0  0
   44.1010   42.2380   45.4150 C   0  0  0  0  0  0  0  0  0  0  0  0
   44.9183   36.4269   42.6810 H   0  0  0  0  0  0  0  0  0  0  0  0
   43.5111   36.1116   43.7646 H   0  0  0  0  0  0  0  0  0  0  0  0
   44.2447   35.3161   46.1444 H   0  0  0  0  0  0  0  0  0  0  0  0
   47.0090   32.1061   45.9390 H   0  0  0  0  0  0  0  0  0  0  0  0
   44.0718   37.8470   44.9562 H   0  0  0  0  0  0  0  0  0  0  0  0
   44.8388   38.3782   42.6263 H   0  0  0  0  0  0  0  0  0  0  0  0
   46.4900   38.2039   43.3753 H   0  0  0  0  0  0  0  0  0  0  0  0
   46.2546   40.4054   43.7218 H   0  0  0  0  0  0  0  0  0  0  0  0
   44.4542   40.3333   43.6772 H   0  0  0  0  0  0  0  0  0  0  0  0
   43.4949   40.9257   47.0189 H   0  0  0  0  0  0  0  0  0  0  0  0
   45.0468   41.7742   47.3031 H   0  0  0  0  0  0  0  0  0  0  0  0
   43.7769   43.2005   45.8375 H   0  0  0  0  0  0  0  0  0  0  0  0
   44.9966   42.3926   44.7954 H   0  0  0  0  0  0  0  0  0  0  0  0
   43.2943   41.8193   44.7954 H   0  0  0  0  0  0  0  0  0  0  0  0
  1  3  1  0
  1 12  1  0
  2  7  2  0
  3  2  1  0
  4  5  1  0
  4  3  2  0
  5  6  2  0
  6  7  1  0
  8 10  1  0
  8  4  1  0
  9  8  1  0
 11  8  1  0
 13 14  1  0
 13 12  1  0
 14 15  1  0
 15 16  1  0
 17 16  1  0
  1 18  1  0
  1 19  1  0
  2 20  1  0
  6 21  1  0
 12 22  1  0
 13 23  1  0
 13 24  1  0
 14 25  1  0
 14 26  1  0
 16 27  1  0
 16 28  1  0
 17 29  1  0
 17 30  1  0
 17 31  1  0
M  ISO  8  18   8  19   8  20  14  21  14  22   5  23   8  24   8  25   8
M  ISO  6  26   8  27   8  28   8  29   8  30   8  31   8
M  END
>  <minimizedAffinity>  (1) 
-3.91057873

>  <minimizedRMSD>  (1) 
1.26995087

$$$$
