
     RDKit          3D

 30 30  0  0  1  0  0  0  0  0999 V2000
   44.6790   36.0700   43.6800 C   0  0  0  0  0  0  0  0  0  0  0  0
   45.1180   34.5170   45.5170 C   0  0  0  0  0  0  0  0  0  0  0  0
   45.4050   34.9450   44.2350 C   0  0  0  0  0  0  0  0  0  0  0  0
   46.3850   34.2640   43.5470 C   0  0  0  0  0  0  0  0  0  0  0  0
   47.0180   33.2060   44.1630 N   0  0  0  0  0  0  0  0  0  0  0  0
   46.7190   32.8130   45.4030 C   0  0  0  0  0  0  0  0  0  0  0  0
   45.7390   33.4930   46.0950 N   0  0  0  0  0  0  0  0  0  0  0  0
   46.6700   34.7370   42.1950 C   0  0  0  0  0  0  0  0  0  0  0  0
   47.4750   33.8070   41.5480 F   0  0  0  0  0  0  0  0  0  0  0  0
   47.3930   35.8840   42.3200 F   0  0  0  0  0  0  0  0  0  0  0  0
   45.5510   34.8210   41.4480 F   0  0  0  0  0  0  0  0  0  0  0  0
   44.7340   37.2260   44.5500 N   0  0  0  0  0  0  0  0  0  0  0  0
   45.6020   38.2150   43.9220 C   0  0  0  0  0  0  0  0  0  0  0  0
   45.0030   39.5990   44.0570 C   0  0  2  0  0  0  0  0  0  0  0  0
   45.6490   40.4870   43.1410 N   0  0  0  0  0  0  0  0  0  0  0  0
   45.2660   40.1520   45.7470 S   0  0  0  0  0  0  0  0  0  0  0  0
   44.3660   41.7280   45.9670 C   0  0  0  0  0  0  0  0  0  0  0  0
   44.4770   42.0850   47.2960 F   0  0  0  0  0  0  0  0  0  0  0  0
   43.0660   41.6340   45.5570 F   0  0  0  0  0  0  0  0  0  0  0  0
   45.0380   42.7060   45.2360 F   0  0  0  0  0  0  0  0  0  0  0  0
   45.1206   36.3344   42.7079 H   0  0  0  0  0  0  0  0  0  0  0  0
   43.6251   35.7757   43.5679 H   0  0  0  0  0  0  0  0  0  0  0  0
   44.3401   35.0477   46.0856 H   0  0  0  0  0  0  0  0  0  0  0  0
   47.2440   31.9633   45.8639 H   0  0  0  0  0  0  0  0  0  0  0  0
   43.7891   37.6170   44.6734 H   0  0  0  0  0  0  0  0  0  0  0  0
   45.7175   37.9718   42.8555 H   0  0  0  0  0  0  0  0  0  0  0  0
   46.5828   38.1988   44.4198 H   0  0  0  0  0  0  0  0  0  0  0  0
   43.9270   39.5832   43.8291 H   0  0  0  0  0  0  0  0  0  0  0  0
   46.1700   41.2032   43.6668 H   0  0  0  0  0  0  0  0  0  0  0  0
   46.3012   39.9540   42.5482 H   0  0  0  0  0  0  0  0  0  0  0  0
  1  3  1  0
  1 12  1  0
  2  7  2  0
  3  2  1  0
  4  5  1  0
  4  3  2  0
  5  6  2  0
  6  7  1  0
  8 10  1  0
  8  4  1  0
  9  8  1  0
 11  8  1  0
 13 14  1  0
 13 12  1  0
 14 16  1  0
 15 14  1  0
 16 17  1  0
 17 18  1  0
 19 17  1  0
 20 17  1  0
  1 21  1  0
  1 22  1  0
  2 23  1  0
  6 24  1  0
 12 25  1  0
 13 26  1  0
 13 27  1  0
 14 28  1  6
 15 29  1  0
 15 30  1  0
M  ISO  8  21   8  22   8  23  14  24  14  25   5  26   8  27   8  28   8
M  ISO  2  29   5  30   5
M  END
>  <minimizedAffinity>  (1) 
-3.81433249

>  <minimizedRMSD>  (1) 
0.500383854

$$$$
