
     RDKit          3D

 37 40  0  0  0  0  0  0  0  0999 V2000
   45.6080   32.3490   40.0800 F   0  0  0  0  0  0  0  0  0  0  0  0
   44.6840   33.3230   40.1700 C   0  0  0  0  0  0  0  0  0  0  0  0
   44.6530   34.1190   41.2820 C   0  0  0  0  0  0  0  0  0  0  0  0
   43.7010   35.1360   41.3920 C   0  0  0  0  0  0  0  0  0  0  0  0
   42.7790   35.3660   40.4030 C   0  0  0  0  0  0  0  0  0  0  0  0
   42.8230   34.5670   39.3040 C   0  0  0  0  0  0  0  0  0  0  0  0
   43.7490   33.5580   39.1680 C   0  0  0  0  0  0  0  0  0  0  0  0
   45.8480   33.5620   37.2600 F   0  0  0  0  0  0  0  0  0  0  0  0
   44.8750   32.6460   37.0760 C   0  0  0  0  0  0  0  0  0  0  0  0
   43.8590   32.6510   38.0080 C   0  0  0  0  0  0  0  0  0  0  0  0
   42.7800   31.7630   37.9530 C   0  0  0  0  0  0  0  0  0  0  0  0
   42.7870   30.8570   36.8880 C   0  0  0  0  0  0  0  0  0  0  0  0
   43.7870   30.8220   35.9370 C   0  0  0  0  0  0  0  0  0  0  0  0
   44.8350   31.7310   36.0430 C   0  0  0  0  0  0  0  0  0  0  0  0
   46.1740   33.4200   44.3750 C   0  0  0  0  0  0  0  0  0  0  0  0
   47.2110   34.0560   43.7170 C   0  0  0  0  0  0  0  0  0  0  0  0
   46.7980   34.4080   42.4730 C   0  0  0  0  0  0  0  0  0  0  0  0
   45.5300   33.9980   42.3650 N   0  0  0  0  0  0  0  0  0  0  0  0
   45.1680   33.4090   43.5070 N   0  0  0  0  0  0  0  0  0  0  0  0
   47.2450   31.5140   47.3140 C   0  0  0  0  0  0  0  0  0  0  0  0
   46.3090   31.9200   48.2950 C   0  0  0  0  0  0  0  0  0  0  0  0
   45.3260   32.8420   47.9290 C   0  0  0  0  0  0  0  0  0  0  0  0
   45.3450   33.2800   46.6540 N   0  0  0  0  0  0  0  0  0  0  0  0
   46.2280   32.8970   45.7270 C   0  0  0  0  0  0  0  0  0  0  0  0
   47.1950   32.0010   46.0550 N   0  0  0  0  0  0  0  0  0  0  0  0
   43.6908   35.7670   42.2930 H   0  0  0  0  0  0  0  0  0  0  0  0
   42.0314   36.1675   40.4956 H   0  0  0  0  0  0  0  0  0  0  0  0
   42.0943   34.7324   38.4967 H   0  0  0  0  0  0  0  0  0  0  0  0
   41.9746   31.7765   38.7021 H   0  0  0  0  0  0  0  0  0  0  0  0
   41.9577   30.1393   36.8041 H   0  0  0  0  0  0  0  0  0  0  0  0
   43.7560   30.0923   35.1144 H   0  0  0  0  0  0  0  0  0  0  0  0
   45.6413   31.7205   35.2948 H   0  0  0  0  0  0  0  0  0  0  0  0
   48.2106   34.2461   44.1350 H   0  0  0  0  0  0  0  0  0  0  0  0
   47.3897   34.9280   41.7052 H   0  0  0  0  0  0  0  0  0  0  0  0
   48.0274   30.7887   47.5817 H   0  0  0  0  0  0  0  0  0  0  0  0
   46.3546   31.5199   49.3186 H   0  0  0  0  0  0  0  0  0  0  0  0
   44.5713   33.1945   48.6475 H   0  0  0  0  0  0  0  0  0  0  0  0
  1  2  1  0
  2  3  2  0
  3  4  1  0
  3 18  1  0
  5  4  2  0
  6  5  1  0
  7  6  2  0
  7  2  1  0
  9  8  1  0
  9 10  2  0
 10  7  1  0
 11 10  1  0
 12 11  2  0
 13 14  2  0
 13 12  1  0
 14  9  1  0
 15 24  1  0
 16 15  1  0
 17 16  2  0
 18 17  1  0
 18 19  1  0
 19 15  2  0
 20 21  2  0
 22 21  1  0
 23 22  2  0
 24 25  2  0
 24 23  1  0
 25 20  1  0
  4 26  1  0
  5 27  1  0
  6 28  1  0
 11 29  1  0
 12 30  1  0
 13 31  1  0
 14 32  1  0
 16 33  1  0
 17 34  1  0
 20 35  1  0
 21 36  1  0
 22 37  1  0
M  ISO  8  26  14  27  14  28  14  29  14  30  14  31  14  32  14  33  14
M  ISO  4  34  14  35  14  36  14  37  14
M  END
>  <minimizedAffinity>  (1) 
-5.29915619

>  <minimizedRMSD>  (1) 
0.759598613

$$$$
