
     RDKit          3D

 35 37  0  0  0  0  0  0  0  0999 V2000
   44.1100   32.1490   41.5380 F   0  0  0  0  0  0  0  0  0  0  0  0
   44.1730   33.4760   41.7450 C   0  0  0  0  0  0  0  0  0  0  0  0
   45.0300   33.9820   42.6760 C   0  0  0  0  0  0  0  0  0  0  0  0
   45.1190   35.3500   42.9130 C   0  0  0  0  0  0  0  0  0  0  0  0
   44.3340   36.2350   42.2060 C   0  0  0  0  0  0  0  0  0  0  0  0
   43.4770   35.7120   41.2720 C   0  0  0  0  0  0  0  0  0  0  0  0
   43.3850   34.3600   41.0340 C   0  0  0  0  0  0  0  0  0  0  0  0
   46.5970   32.2320   45.3110 C   0  0  0  0  0  0  0  0  0  0  0  0
   47.4410   31.9050   44.2460 C   0  0  0  0  0  0  0  0  0  0  0  0
   46.9880   32.5030   43.1180 C   0  0  0  0  0  0  0  0  0  0  0  0
   45.8840   33.1880   43.4650 N   0  0  0  0  0  0  0  0  0  0  0  0
   45.6660   33.0150   44.7850 N   0  0  0  0  0  0  0  0  0  0  0  0
   47.8300   30.4010   48.2250 C   0  0  0  0  0  0  0  0  0  0  0  0
   47.0610   30.9410   49.2690 C   0  0  0  0  0  0  0  0  0  0  0  0
   46.1190   31.9370   48.9660 C   0  0  0  0  0  0  0  0  0  0  0  0
   46.0400   32.2900   47.6580 N   0  0  0  0  0  0  0  0  0  0  0  0
   46.7710   31.7740   46.6680 C   0  0  0  0  0  0  0  0  0  0  0  0
   47.6800   30.8180   46.9450 N   0  0  0  0  0  0  0  0  0  0  0  0
   42.4970   33.8200   40.0680 N   0  0  0  0  0  0  0  0  0  0  0  0
   41.6950   34.5360   38.7520 S   0  0  0  0  0  0  0  0  0  0  0  0
   41.0110   33.4360   37.9500 O   0  0  0  0  0  0  0  0  0  0  0  0
   40.6300   35.5050   39.0970 O   0  0  0  0  0  0  0  0  0  0  0  0
   42.7570   35.2890   37.6890 O   0  0  0  0  0  0  0  0  0  0  0  0
   45.8213   35.7281   43.6705 H   0  0  0  0  0  0  0  0  0  0  0  0
   44.3926   37.3189   42.3840 H   0  0  0  0  0  0  0  0  0  0  0  0
   42.8408   36.3974   40.6928 H   0  0  0  0  0  0  0  0  0  0  0  0
   48.3321   31.2636   44.3131 H   0  0  0  0  0  0  0  0  0  0  0  0
   47.4354   32.4405   42.1150 H   0  0  0  0  0  0  0  0  0  0  0  0
   48.5716   29.6210   48.4522 H   0  0  0  0  0  0  0  0  0  0  0  0
   47.1941   30.5906   50.3032 H   0  0  0  0  0  0  0  0  0  0  0  0
   45.4869   32.4005   49.7377 H   0  0  0  0  0  0  0  0  0  0  0  0
   42.3042   32.8150   40.1853 H   0  0  0  0  0  0  0  0  0  0  0  0
   40.6034   32.7805   38.5699 H   0  0  0  0  0  0  0  0  0  0  0  0
   40.5535   35.5746   40.0816 H   0  0  0  0  0  0  0  0  0  0  0  0
   43.4471   35.7783   38.2033 H   0  0  0  0  0  0  0  0  0  0  0  0
  1  2  1  0
  2  3  2  0
  3  4  1  0
  3 11  1  0
  5  4  2  0
  6  5  1  0
  7  6  2  0
  7  2  1  0
  8 17  1  0
  9  8  1  0
 10 11  1  0
 10  9  2  0
 11 12  1  0
 12  8  2  0
 13 14  2  0
 15 14  1  0
 16 15  2  0
 17 18  2  0
 17 16  1  0
 18 13  1  0
 19  7  1  0
 20 22  1  0
 20 19  1  0
 21 20  1  0
 23 20  1  0
  4 24  1  0
  5 25  1  0
  6 26  1  0
  9 27  1  0
 10 28  1  0
 13 29  1  0
 14 30  1  0
 15 31  1  0
 19 32  1  0
 21 33  1  0
 22 34  1  0
 23 35  1  0
M  ISO  8  24  14  25  14  26  14  27  14  28  14  29  14  30  14  31  14
M  ISO  3  33   3  34   3  35   3
M  END
>  <minimizedAffinity>  (1) 
-5.20900917

>  <minimizedRMSD>  (1) 
1.82529962

$$$$
