
     RDKit          3D

 29 31  0  0  0  0  0  0  0  0999 V2000
   45.8950   33.5660   44.2980 C   0  0  0  0  0  0  0  0  0  0  0  0
   46.8700   34.2490   43.5690 C   0  0  0  0  0  0  0  0  0  0  0  0
   46.3200   34.7070   42.4120 C   0  0  0  0  0  0  0  0  0  0  0  0
   45.0390   34.3150   42.4280 N   0  0  0  0  0  0  0  0  0  0  0  0
   44.8010   33.6360   43.5590 N   0  0  0  0  0  0  0  0  0  0  0  0
   45.0990   33.2530   39.8050 F   0  0  0  0  0  0  0  0  0  0  0  0
   44.0600   34.0110   40.1920 C   0  0  0  0  0  0  0  0  0  0  0  0
   44.0330   34.5280   41.4710 C   0  0  0  0  0  0  0  0  0  0  0  0
   42.9660   35.3150   41.8860 C   0  0  0  0  0  0  0  0  0  0  0  0
   41.9150   35.6030   41.0490 C   0  0  0  0  0  0  0  0  0  0  0  0
   41.9580   35.0810   39.7830 C   0  0  0  0  0  0  0  0  0  0  0  0
   43.0060   34.3000   39.3520 C   0  0  0  0  0  0  0  0  0  0  0  0
   43.1000   33.7320   38.0410 N   0  0  0  0  0  0  0  0  0  0  0  0
   47.2790   31.4270   46.9370 C   0  0  0  0  0  0  0  0  0  0  0  0
   46.5020   31.7900   48.0480 C   0  0  0  0  0  0  0  0  0  0  0  0
   45.5080   32.7640   47.8850 C   0  0  0  0  0  0  0  0  0  0  0  0
   45.3760   33.2870   46.6510 N   0  0  0  0  0  0  0  0  0  0  0  0
   46.1200   32.9420   45.5870 C   0  0  0  0  0  0  0  0  0  0  0  0
   47.0850   32.0030   45.7160 N   0  0  0  0  0  0  0  0  0  0  0  0
   47.9151   34.3937   43.8800 H   0  0  0  0  0  0  0  0  0  0  0  0
   46.8252   35.2830   41.6226 H   0  0  0  0  0  0  0  0  0  0  0  0
   42.9624   35.7174   42.9097 H   0  0  0  0  0  0  0  0  0  0  0  0
   41.0730   36.2276   41.3820 H   0  0  0  0  0  0  0  0  0  0  0  0
   41.1301   35.2925   39.0903 H   0  0  0  0  0  0  0  0  0  0  0  0
   43.9152   33.1561   37.7865 H   0  0  0  0  0  0  0  0  0  0  0  0
   42.3525   33.8993   37.3524 H   0  0  0  0  0  0  0  0  0  0  0  0
   48.0608   30.6620   47.0534 H   0  0  0  0  0  0  0  0  0  0  0  0
   46.6701   31.3190   49.0277 H   0  0  0  0  0  0  0  0  0  0  0  0
   44.8690   33.0846   48.7210 H   0  0  0  0  0  0  0  0  0  0  0  0
  1 18  1  0
  2  1  1  0
  3  4  1  0
  3  2  2  0
  4  5  1  0
  5  1  2  0
  6  7  1  0
  7  8  2  0
  8  9  1  0
  8  4  1  0
 10  9  2  0
 11 10  1  0
 12 11  2  0
 12  7  1  0
 13 12  1  0
 14 15  2  0
 16 15  1  0
 17 16  2  0
 18 19  2  0
 18 17  1  0
 19 14  1  0
  2 20  1  0
  3 21  1  0
  9 22  1  0
 10 23  1  0
 11 24  1  0
 13 25  1  0
 13 26  1  0
 14 27  1  0
 15 28  1  0
 16 29  1  0
M  ISO  8  20  14  21  14  22  14  23  14  24  14  27  14  28  14  29  14
M  END
>  <minimizedAffinity>  (1) 
-4.93859529

>  <minimizedRMSD>  (1) 
0.520905435

$$$$
