
     RDKit          3D

 34 37  0  0  0  0  0  0  0  0999 V2000
   46.2740   32.8800   45.1280 C   0  0  0  0  0  0  0  0  0  0  0  0
   47.3350   33.3060   44.3370 C   0  0  0  0  0  0  0  0  0  0  0  0
   46.8450   33.7770   43.1610 C   0  0  0  0  0  0  0  0  0  0  0  0
   45.5210   33.6460   43.2180 N   0  0  0  0  0  0  0  0  0  0  0  0
   45.1920   33.1080   44.4010 N   0  0  0  0  0  0  0  0  0  0  0  0
   44.1070   31.7430   41.6840 F   0  0  0  0  0  0  0  0  0  0  0  0
   43.8520   33.0580   41.5160 C   0  0  0  0  0  0  0  0  0  0  0  0
   44.5470   33.9780   42.2680 C   0  0  0  0  0  0  0  0  0  0  0  0
   44.2940   35.3300   42.1040 C   0  0  0  0  0  0  0  0  0  0  0  0
   43.3660   35.8080   41.2110 C   0  0  0  0  0  0  0  0  0  0  0  0
   42.6940   34.8770   40.4790 C   0  0  0  0  0  0  0  0  0  0  0  0
   42.9130   33.5220   40.6100 C   0  0  0  0  0  0  0  0  0  0  0  0
   42.2100   32.4710   39.8410 C   0  0  0  0  0  0  0  0  0  0  0  0
   41.7620   32.8010   38.4580 C   0  0  0  0  0  0  0  0  0  0  0  0
   40.7650   32.5760   39.5610 C   0  0  0  0  0  0  0  0  0  0  0  0
   47.4690   30.8540   47.9370 C   0  0  0  0  0  0  0  0  0  0  0  0
   46.6220   31.2650   48.9820 C   0  0  0  0  0  0  0  0  0  0  0  0
   45.6480   32.2330   48.7140 C   0  0  0  0  0  0  0  0  0  0  0  0
   45.6050   32.6990   47.4510 N   0  0  0  0  0  0  0  0  0  0  0  0
   46.4030   32.3150   46.4570 C   0  0  0  0  0  0  0  0  0  0  0  0
   47.3530   31.3800   46.6920 N   0  0  0  0  0  0  0  0  0  0  0  0
   48.3979   33.2678   44.6177 H   0  0  0  0  0  0  0  0  0  0  0  0
   47.4287   34.1872   42.3237 H   0  0  0  0  0  0  0  0  0  0  0  0
   44.8592   36.0503   42.7137 H   0  0  0  0  0  0  0  0  0  0  0  0
   43.1760   36.8851   41.0936 H   0  0  0  0  0  0  0  0  0  0  0  0
   41.9439   35.2208   39.7516 H   0  0  0  0  0  0  0  0  0  0  0  0
   42.8343   31.6931   40.3048 H   0  0  0  0  0  0  0  0  0  0  0  0
   41.8696   32.0613   37.6510 H   0  0  0  0  0  0  0  0  0  0  0  0
   41.9669   33.6087   37.7400 H   0  0  0  0  0  0  0  0  0  0  0  0
   40.1874   33.4223   39.9612 H   0  0  0  0  0  0  0  0  0  0  0  0
   39.8959   31.9164   39.7010 H   0  0  0  0  0  0  0  0  0  0  0  0
   48.2387   30.0929   48.1327 H   0  0  0  0  0  0  0  0  0  0  0  0
   46.7233   30.8343   49.9891 H   0  0  0  0  0  0  0  0  0  0  0  0
   44.9569   32.5929   49.4904 H   0  0  0  0  0  0  0  0  0  0  0  0
  1 20  1  0
  2  1  1  0
  3  4  1  0
  3  2  2  0
  4  5  1  0
  5  1  2  0
  7  6  1  0
  7  8  2  0
  8  4  1  0
  9  8  1  0
 10  9  2  0
 11 12  2  0
 11 10  1  0
 12  7  1  0
 13 12  1  0
 14 15  1  0
 14 13  1  0
 15 13  1  0
 16 17  2  0
 18 17  1  0
 19 18  2  0
 20 21  2  0
 20 19  1  0
 21 16  1  0
  2 22  1  0
  3 23  1  0
  9 24  1  0
 10 25  1  0
 11 26  1  0
 13 27  1  0
 14 28  1  0
 14 29  1  0
 15 30  1  0
 15 31  1  0
 16 32  1  0
 17 33  1  0
 18 34  1  0
M  ISO  8  22  14  23  14  24  14  25  14  26  14  27  13  28  13  29  13
M  ISO  5  30  13  31  13  32  14  33  14  34  14
M  END
>  <minimizedAffinity>  (1) 
-4.78146982

>  <minimizedRMSD>  (1) 
1.26447213

$$$$
