
     RDKit          3D

 47 51  0  0  0  0  0  0  0  0999 V2000
   44.9230   33.9160   42.5520 C   0  0  0  0  0  0  0  0  0  0  0  0
   45.0080   35.2970   42.5020 C   0  0  0  0  0  0  0  0  0  0  0  0
   43.8790   35.7870   41.9170 C   0  0  0  0  0  0  0  0  0  0  0  0
   43.1160   34.7130   41.6150 N   0  0  0  0  0  0  0  0  0  0  0  0
   43.7450   33.6090   41.9960 N   0  0  0  0  0  0  0  0  0  0  0  0
   42.0110   32.4760   40.2890 F   0  0  0  0  0  0  0  0  0  0  0  0
   41.3190   33.6130   40.3560 C   0  0  0  0  0  0  0  0  0  0  0  0
   41.8600   34.6950   41.0010 C   0  0  0  0  0  0  0  0  0  0  0  0
   41.1360   35.8970   41.0770 C   0  0  0  0  0  0  0  0  0  0  0  0
   39.8970   36.0350   40.5280 C   0  0  0  0  0  0  0  0  0  0  0  0
   39.3720   34.9310   39.8830 C   0  0  0  0  0  0  0  0  0  0  0  0
   40.0700   33.7290   39.7940 C   0  0  0  0  0  0  0  0  0  0  0  0
   39.4240   32.6280   39.0930 C   0  0  0  0  0  0  0  0  0  0  0  0
   39.2070   32.4010   37.7550 C   0  0  0  0  0  0  0  0  0  0  0  0
   38.5560   31.2230   37.5810 N   0  0  0  0  0  0  0  0  0  0  0  0
   38.3650   30.7140   38.8010 C   0  0  0  0  0  0  0  0  0  0  0  0
   38.8840   31.5530   39.7050 N   0  0  0  0  0  0  0  0  0  0  0  0
   46.7720   31.8200   44.9100 C   0  0  0  0  0  0  0  0  0  0  0  0
   47.8380   31.3410   44.1220 C   0  0  0  0  0  0  0  0  0  0  0  0
   47.9010   31.7510   42.7850 C   0  0  0  0  0  0  0  0  0  0  0  0
   46.9370   32.5730   42.3480 N   0  0  0  0  0  0  0  0  0  0  0  0
   45.9200   33.0320   43.0980 C   0  0  0  0  0  0  0  0  0  0  0  0
   45.8340   32.6500   44.4010 N   0  0  0  0  0  0  0  0  0  0  0  0
   48.9630   31.3310   41.8310 C   0  0  0  0  0  0  0  0  0  0  0  0
   50.0270   30.6100   42.6120 C   0  0  0  0  0  0  0  0  0  0  0  0
   51.2750   31.4720   42.5260 C   0  0  0  0  0  0  0  0  0  0  0  0
   50.7830   32.8780   42.2060 C   0  0  0  0  0  0  0  0  0  0  0  0
   49.6550   32.5680   41.2470 C   0  0  0  0  0  0  0  0  0  0  0  0
   45.8494   35.9001   42.8738 H   0  0  0  0  0  0  0  0  0  0  0  0
   43.6374   36.8435   41.7286 H   0  0  0  0  0  0  0  0  0  0  0  0
   41.5851   36.7557   41.5975 H   0  0  0  0  0  0  0  0  0  0  0  0
   39.3401   36.9812   40.5949 H   0  0  0  0  0  0  0  0  0  0  0  0
   38.3738   35.0038   39.4267 H   0  0  0  0  0  0  0  0  0  0  0  0
   39.5160   33.0759   36.9432 H   0  0  0  0  0  0  0  0  0  0  0  0
   38.2665   30.8044   36.6855 H   0  0  0  0  0  0  0  0  0  0  0  0
   37.8633   29.7612   39.0258 H   0  0  0  0  0  0  0  0  0  0  0  0
   46.7016   31.5114   45.9635 H   0  0  0  0  0  0  0  0  0  0  0  0
   48.5968   30.6660   44.5445 H   0  0  0  0  0  0  0  0  0  0  0  0
   48.5117   30.7129   41.0409 H   0  0  0  0  0  0  0  0  0  0  0  0
   49.7164   30.4926   43.6607 H   0  0  0  0  0  0  0  0  0  0  0  0
   50.2073   29.6030   42.2077 H   0  0  0  0  0  0  0  0  0  0  0  0
   51.8142   31.4632   43.4848 H   0  0  0  0  0  0  0  0  0  0  0  0
   51.9725   31.1016   41.7603 H   0  0  0  0  0  0  0  0  0  0  0  0
   50.4193   33.3950   43.1062 H   0  0  0  0  0  0  0  0  0  0  0  0
   51.5539   33.5510   41.8024 H   0  0  0  0  0  0  0  0  0  0  0  0
   50.0498   32.3519   40.2433 H   0  0  0  0  0  0  0  0  0  0  0  0
   48.9619   33.4152   41.1383 H   0  0  0  0  0  0  0  0  0  0  0  0
  1 22  1  0
  2  1  1  0
  3  2  2  0
  4  3  1  0
  4  5  1  0
  5  1  2  0
  6  7  1  0
  7  8  2  0
  8  9  1  0
  8  4  1  0
 10  9  2  0
 11 10  1  0
 12 11  2  0
 12  7  1  0
 13 17  1  0
 13 12  1  0
 14 13  2  0
 15 14  1  0
 15 16  1  0
 16 17  2  0
 19 18  2  0
 20 19  1  0
 21 20  2  0
 21 22  1  0
 22 23  2  0
 23 18  1  0
 24 25  1  0
 24 20  1  0
 26 25  1  0
 27 26  1  0
 28 24  1  0
 28 27  1  0
  2 29  1  0
  3 30  1  0
  9 31  1  0
 10 32  1  0
 11 33  1  0
 14 34  1  0
 15 35  1  0
 16 36  1  0
 18 37  1  0
 19 38  1  0
 24 39  1  0
 25 40  1  0
 25 41  1  0
 26 42  1  0
 26 43  1  0
 27 44  1  0
 27 45  1  0
 28 46  1  0
 28 47  1  0
M  ISO  8  29  14  30  14  31  14  32  14  33  14  34  14  35   9  36  14
M  ISO  8  37  14  38  14  39  13  40  13  41  13  42  13  43  13  44  13
M  ISO  3  45  13  46  13  47  13
M  END
>  <minimizedAffinity>  (1) 
-5.85556126

>  <minimizedRMSD>  (1) 
5.5641098

$$$$
