
     RDKit          3D

 36 39  0  0  0  0  0  0  0  0999 V2000
   44.7320   32.1040   40.9600 F   0  0  0  0  0  0  0  0  0  0  0  0
   44.2250   33.3270   41.1460 C   0  0  0  0  0  0  0  0  0  0  0  0
   44.6940   34.0970   42.1810 C   0  0  0  0  0  0  0  0  0  0  0  0
   44.1740   35.3760   42.3850 C   0  0  0  0  0  0  0  0  0  0  0  0
   43.1920   35.9100   41.5790 C   0  0  0  0  0  0  0  0  0  0  0  0
   42.7440   35.1020   40.5450 C   0  0  0  0  0  0  0  0  0  0  0  0
   43.2480   33.8230   40.3220 C   0  0  0  0  0  0  0  0  0  0  0  0
   42.7010   33.0700   39.2050 C   0  0  0  0  0  0  0  0  0  0  0  0
   43.2650   32.5690   38.0720 C   0  0  0  0  0  0  0  0  0  0  0  0
   42.3450   31.9320   37.3210 N   0  0  0  0  0  0  0  0  0  0  0  0
   41.1880   32.0280   37.9770 C   0  0  0  0  0  0  0  0  0  0  0  0
   41.3970   32.7130   39.1140 N   0  0  0  0  0  0  0  0  0  0  0  0
   46.5250   32.7400   44.8540 C   0  0  0  0  0  0  0  0  0  0  0  0
   47.5430   33.3880   44.1520 C   0  0  0  0  0  0  0  0  0  0  0  0
   47.0070   33.9910   43.0470 C   0  0  0  0  0  0  0  0  0  0  0  0
   45.6840   33.7070   43.0890 N   0  0  0  0  0  0  0  0  0  0  0  0
   45.4200   32.9660   44.1680 N   0  0  0  0  0  0  0  0  0  0  0  0
   47.6810   30.2090   47.2210 C   0  0  0  0  0  0  0  0  0  0  0  0
   47.0610   30.6020   48.4230 C   0  0  0  0  0  0  0  0  0  0  0  0
   46.2370   31.7570   48.3980 C   0  0  0  0  0  0  0  0  0  0  0  0
   46.1310   32.3680   47.2120 N   0  0  0  0  0  0  0  0  0  0  0  0
   46.7180   31.9950   46.0780 C   0  0  0  0  0  0  0  0  0  0  0  0
   47.5120   30.8930   46.0730 N   0  0  0  0  0  0  0  0  0  0  0  0
   45.5730   32.2210   49.5770 N   0  0  0  0  0  0  0  0  0  0  0  0
   44.5619   35.9794   43.2190 H   0  0  0  0  0  0  0  0  0  0  0  0
   42.7870   36.9189   41.7462 H   0  0  0  0  0  0  0  0  0  0  0  0
   41.9605   35.4859   39.8752 H   0  0  0  0  0  0  0  0  0  0  0  0
   44.3274   32.6703   37.8056 H   0  0  0  0  0  0  0  0  0  0  0  0
   42.5042   31.4631   36.4178 H   0  0  0  0  0  0  0  0  0  0  0  0
   40.2243   31.6157   37.6434 H   0  0  0  0  0  0  0  0  0  0  0  0
   48.6042   33.4102   44.4406 H   0  0  0  0  0  0  0  0  0  0  0  0
   47.5383   34.5813   42.2859 H   0  0  0  0  0  0  0  0  0  0  0  0
   48.3231   29.3159   47.2197 H   0  0  0  0  0  0  0  0  0  0  0  0
   47.2108   30.0317   49.3516 H   0  0  0  0  0  0  0  0  0  0  0  0
   44.9794   33.0618   49.5366 H   0  0  0  0  0  0  0  0  0  0  0  0
   45.6885   31.7143   50.4663 H   0  0  0  0  0  0  0  0  0  0  0  0
  1  2  1  0
  2  3  2  0
  3  4  1  0
  3 16  1  0
  5  4  2  0
  6  5  1  0
  7  6  2  0
  7  2  1  0
  8  7  1  0
  9  8  2  0
 10 11  1  0
 10  9  1  0
 11 12  2  0
 12  8  1  0
 13 22  1  0
 14 13  1  0
 15 16  1  0
 15 14  2  0
 16 17  1  0
 17 13  2  0
 18 19  2  0
 20 19  1  0
 20 24  1  0
 21 20  2  0
 22 21  1  0
 23 22  2  0
 23 18  1  0
  4 25  1  0
  5 26  1  0
  6 27  1  0
  9 28  1  0
 10 29  1  0
 11 30  1  0
 14 31  1  0
 15 32  1  0
 18 33  1  0
 19 34  1  0
 24 35  1  0
 24 36  1  0
M  ISO  8  25  14  26  14  27  14  28  14  29   9  30  14  31  14  32  14
M  ISO  2  33  14  34  14
M  END
>  <minimizedAffinity>  (1) 
-5.46892595

>  <minimizedRMSD>  (1) 
0.504051685

$$$$
