
     RDKit          3D

 37 40  0  0  0  0  0  0  0  0999 V2000
   44.6400   32.0230   40.9600 F   0  0  0  0  0  0  0  0  0  0  0  0
   44.1920   33.2640   41.0950 C   0  0  0  0  0  0  0  0  0  0  0  0
   44.6830   34.0600   42.0880 C   0  0  0  0  0  0  0  0  0  0  0  0
   44.2180   35.3750   42.2420 C   0  0  0  0  0  0  0  0  0  0  0  0
   43.2730   35.9050   41.4200 C   0  0  0  0  0  0  0  0  0  0  0  0
   42.7850   35.0840   40.4170 C   0  0  0  0  0  0  0  0  0  0  0  0
   43.2400   33.7770   40.2560 C   0  0  0  0  0  0  0  0  0  0  0  0
   42.6530   33.0010   39.1600 C   0  0  0  0  0  0  0  0  0  0  0  0
   43.2210   32.4510   38.0430 C   0  0  0  0  0  0  0  0  0  0  0  0
   42.2880   31.8180   37.3070 N   0  0  0  0  0  0  0  0  0  0  0  0
   41.1230   31.9700   37.9600 C   0  0  0  0  0  0  0  0  0  0  0  0
   41.3500   32.6810   39.0730 N   0  0  0  0  0  0  0  0  0  0  0  0
   46.4900   32.6160   44.7390 C   0  0  0  0  0  0  0  0  0  0  0  0
   47.4780   33.4040   44.1620 C   0  0  0  0  0  0  0  0  0  0  0  0
   46.9460   34.0530   43.0930 C   0  0  0  0  0  0  0  0  0  0  0  0
   45.6570   33.6700   43.0180 N   0  0  0  0  0  0  0  0  0  0  0  0
   45.3960   32.8080   44.0100 N   0  0  0  0  0  0  0  0  0  0  0  0
   47.7080   29.9400   46.9110 C   0  0  0  0  0  0  0  0  0  0  0  0
   46.9820   30.1470   48.1010 C   0  0  0  0  0  0  0  0  0  0  0  0
   46.0730   31.2140   48.1440 C   0  0  0  0  0  0  0  0  0  0  0  0
   45.9750   31.9580   47.0230 N   0  0  0  0  0  0  0  0  0  0  0  0
   46.6560   31.7650   45.9050 C   0  0  0  0  0  0  0  0  0  0  0  0
   47.5470   30.7320   45.8410 N   0  0  0  0  0  0  0  0  0  0  0  0
   45.2600   31.5170   49.3470 C   0  0  0  0  0  0  0  0  0  0  0  0
   44.6300   35.9955   43.0515 H   0  0  0  0  0  0  0  0  0  0  0  0
   42.9133   36.9369   41.5458 H   0  0  0  0  0  0  0  0  0  0  0  0
   42.0190   35.4736   39.7303 H   0  0  0  0  0  0  0  0  0  0  0  0
   44.2879   32.5167   37.7834 H   0  0  0  0  0  0  0  0  0  0  0  0
   42.4374   31.3168   36.4197 H   0  0  0  0  0  0  0  0  0  0  0  0
   40.1481   31.5772   37.6356 H   0  0  0  0  0  0  0  0  0  0  0  0
   48.5174   33.4885   44.5120 H   0  0  0  0  0  0  0  0  0  0  0  0
   47.4655   34.7527   42.4218 H   0  0  0  0  0  0  0  0  0  0  0  0
   48.4251   29.1075   46.8586 H   0  0  0  0  0  0  0  0  0  0  0  0
   47.1243   29.4900   48.9717 H   0  0  0  0  0  0  0  0  0  0  0  0
   45.8472   31.2982   50.2510 H   0  0  0  0  0  0  0  0  0  0  0  0
   44.9786   32.5804   49.3411 H   0  0  0  0  0  0  0  0  0  0  0  0
   44.3513   30.8972   49.3411 H   0  0  0  0  0  0  0  0  0  0  0  0
  1  2  1  0
  2  3  2  0
  3  4  1  0
  3 16  1  0
  5  4  2  0
  6  5  1  0
  7  6  2  0
  7  2  1  0
  8  7  1  0
  9  8  2  0
 10 11  1  0
 10  9  1  0
 11 12  2  0
 12  8  1  0
 13 22  1  0
 14 13  1  0
 15 14  2  0
 16 15  1  0
 16 17  1  0
 17 13  2  0
 18 19  2  0
 19 20  1  0
 20 24  1  0
 21 20  2  0
 22 21  1  0
 23 22  2  0
 23 18  1  0
  4 25  1  0
  5 26  1  0
  6 27  1  0
  9 28  1  0
 10 29  1  0
 11 30  1  0
 14 31  1  0
 15 32  1  0
 18 33  1  0
 19 34  1  0
 24 35  1  0
 24 36  1  0
 24 37  1  0
M  ISO  8  25  14  26  14  27  14  28  14  29   9  30  14  31  14  32  14
M  ISO  5  33  14  34  14  35   8  36   8  37   8
M  END
>  <minimizedAffinity>  (1) 
-5.23351383

>  <minimizedRMSD>  (1) 
0.693643153

$$$$
