
     RDKit          3D

 37 39  0  0  0  0  0  0  0  0999 V2000
   47.3960   31.3720   47.2540 C   0  0  0  0  0  0  0  0  0  0  0  0
   47.8960   32.0250   48.3470 C   0  0  0  0  0  0  0  0  0  0  0  0
   48.7150   31.4290   49.2710 C   0  0  0  0  0  0  0  0  0  0  0  0
   49.0530   30.1300   49.1090 C   0  0  0  0  0  0  0  0  0  0  0  0
   48.5580   29.4520   48.0110 C   0  0  0  0  0  0  0  0  0  0  0  0
   47.7310   30.0600   47.0780 C   0  0  0  0  0  0  0  0  0  0  0  0
   49.9350   29.4980   50.1120 C   0  0  0  0  0  0  0  0  0  0  0  0
   50.5180   30.0310   51.2170 C   0  0  0  0  0  0  0  0  0  0  0  0
   51.2610   29.0330   51.8440 C   0  0  0  0  0  0  0  0  0  0  0  0
   51.0950   27.9260   51.0870 N   0  0  0  0  0  0  0  0  0  0  0  0
   50.2970   28.2090   50.0440 N   0  0  0  0  0  0  0  0  0  0  0  0
   48.4220   28.9670   45.0420 C   0  0  0  0  0  0  0  0  0  0  0  0
   49.4940   29.5410   44.6150 O   0  0  0  0  0  0  0  0  0  0  0  0
   47.4490   29.0620   46.0920 N   0  0  0  0  0  0  0  0  0  0  0  0
   46.5040   31.8720   46.2060 C   0  0  0  0  0  0  0  0  0  0  0  0
   45.7180   33.0750   46.6630 C   0  0  0  0  0  0  0  0  0  0  0  0
   46.1070   34.6590   43.3770 C   0  0  0  0  0  0  0  0  0  0  0  0
   45.2220   35.7610   43.4640 C   0  0  0  0  0  0  0  0  0  0  0  0
   44.5190   35.9110   44.6700 C   0  0  0  0  0  0  0  0  0  0  0  0
   44.7010   35.0370   45.6650 N   0  0  0  0  0  0  0  0  0  0  0  0
   45.5610   33.9990   45.5260 C   0  0  0  0  0  0  0  0  0  0  0  0
   46.2460   33.8050   44.4260 N   0  0  0  0  0  0  0  0  0  0  0  0
   47.6274   33.0818   48.4920 H   0  0  0  0  0  0  0  0  0  0  0  0
   49.0919   31.9999   50.1324 H   0  0  0  0  0  0  0  0  0  0  0  0
   48.8289   28.3949   47.8724 H   0  0  0  0  0  0  0  0  0  0  0  0
   50.4203   31.0721   51.5583 H   0  0  0  0  0  0  0  0  0  0  0  0
   51.8580   29.1266   52.7632 H   0  0  0  0  0  0  0  0  0  0  0  0
   51.5159   27.0060   51.2801 H   0  0  0  0  0  0  0  0  0  0  0  0
   48.1690   28.1241   44.3821 H   0  0  0  0  0  0  0  0  0  0  0  0
   46.6142   28.4600   46.1329 H   0  0  0  0  0  0  0  0  0  0  0  0
   45.8012   31.0733   45.9263 H   0  0  0  0  0  0  0  0  0  0  0  0
   47.1223   32.1747   45.3480 H   0  0  0  0  0  0  0  0  0  0  0  0
   44.7276   32.7559   47.0197 H   0  0  0  0  0  0  0  0  0  0  0  0
   46.2492   33.5790   47.4838 H   0  0  0  0  0  0  0  0  0  0  0  0
   46.6851   34.4929   42.4560 H   0  0  0  0  0  0  0  0  0  0  0  0
   45.0918   36.4644   42.6284 H   0  0  0  0  0  0  0  0  0  0  0  0
   43.8175   36.7488   44.7963 H   0  0  0  0  0  0  0  0  0  0  0  0
  1  2  2  0
  2  3  1  0
  4  3  2  0
  4  7  1  0
  5  4  1  0
  6  1  1  0
  6  5  2  0
  7  8  1  0
  8  9  2  0
 10  9  1  0
 11  7  2  0
 11 10  1  0
 12 14  1  0
 13 12  2  0
 14  6  1  0
 15 16  1  0
 15  1  1  0
 17 18  2  0
 17 22  1  0
 18 19  1  0
 19 20  2  0
 21 20  1  0
 21 16  1  0
 22 21  2  0
  2 23  1  0
  3 24  1  0
  5 25  1  0
  8 26  1  0
  9 27  1  0
 10 28  1  0
 12 29  1  0
 14 30  1  0
 15 31  1  0
 15 32  1  0
 16 33  1  0
 16 34  1  0
 17 35  1  0
 18 36  1  0
 19 37  1  0
M  ISO  8  23  14  24  14  25  14  26  14  27  14  28   9  29   6  31   8
M  ISO  6  32   8  33   8  34   8  35  14  36  14  37  14
M  END
>  <minimizedAffinity>  (1) 
-5.20110083

>  <minimizedRMSD>  (1) 
3.7365458

$$$$
