
     RDKit          3D

 37 38  0  0  0  0  0  0  0  0999 V2000
   46.3580   31.6670   46.9930 C   0  0  0  0  0  0  0  0  0  0  0  0
   45.2960   31.7640   47.8470 C   0  0  0  0  0  0  0  0  0  0  0  0
   44.7570   30.7150   48.5250 C   0  0  0  0  0  0  0  0  0  0  0  0
   45.2870   29.5000   48.3600 C   0  0  0  0  0  0  0  0  0  0  0  0
   46.3800   29.3360   47.4970 C   0  0  0  0  0  0  0  0  0  0  0  0
   46.9140   30.4240   46.8170 C   0  0  0  0  0  0  0  0  0  0  0  0
   44.2010   26.9690   47.3050 N   0  0  0  0  0  0  0  0  0  0  0  0
   44.6720   27.0870   48.4960 C   0  0  0  0  0  0  0  0  0  0  0  0
   44.7590   28.3450   49.0690 N   0  0  0  0  0  0  0  0  0  0  0  0
   45.0910   25.9080   49.2250 N   0  0  0  0  0  0  0  0  0  0  0  0
   43.8740   27.7340   46.7230 H   0  0  0  0  0  0  0  0  0  0  0  0
   49.1820   29.5940   46.8490 C   0  0  0  0  0  0  0  0  0  0  0  0
   49.6260   29.6780   48.0550 O   0  0  0  0  0  0  0  0  0  0  0  0
   48.0160   29.9110   46.0690 N   0  0  0  0  0  0  0  0  0  0  0  0
   47.0180   32.7020   46.1780 C   0  0  0  0  0  0  0  0  0  0  0  0
   46.5380   32.6480   44.7430 C   0  0  0  0  0  0  0  0  0  0  0  0
   44.5570   35.7180   44.9370 C   0  0  0  0  0  0  0  0  0  0  0  0
   44.8300   36.3480   43.7030 C   0  0  0  0  0  0  0  0  0  0  0  0
   45.6990   35.6790   42.8480 C   0  0  0  0  0  0  0  0  0  0  0  0
   46.2330   34.4960   43.2090 N   0  0  0  0  0  0  0  0  0  0  0  0
   45.9300   33.9470   44.4060 C   0  0  0  0  0  0  0  0  0  0  0  0
   45.1200   34.5270   45.2550 N   0  0  0  0  0  0  0  0  0  0  0  0
   44.8467   32.7569   47.9964 H   0  0  0  0  0  0  0  0  0  0  0  0
   43.8995   30.8647   49.1975 H   0  0  0  0  0  0  0  0  0  0  0  0
   46.8187   28.3370   47.3570 H   0  0  0  0  0  0  0  0  0  0  0  0
   44.4358   28.4679   50.0392 H   0  0  0  0  0  0  0  0  0  0  0  0
   45.4686   25.9995   50.1789 H   0  0  0  0  0  0  0  0  0  0  0  0
   45.0115   24.9780   48.7896 H   0  0  0  0  0  0  0  0  0  0  0  0
   49.9427   29.1277   46.2057 H   0  0  0  0  0  0  0  0  0  0  0  0
   47.9790   29.7779   45.0483 H   0  0  0  0  0  0  0  0  0  0  0  0
   46.7873   33.6922   46.5978 H   0  0  0  0  0  0  0  0  0  0  0  0
   48.1030   32.5215   46.1925 H   0  0  0  0  0  0  0  0  0  0  0  0
   47.3888   32.4514   44.0740 H   0  0  0  0  0  0  0  0  0  0  0  0
   45.7988   31.8424   44.6221 H   0  0  0  0  0  0  0  0  0  0  0  0
   43.8758   36.2022   45.6522 H   0  0  0  0  0  0  0  0  0  0  0  0
   44.3800   37.3147   43.4330 H   0  0  0  0  0  0  0  0  0  0  0  0
   45.9518   36.1181   41.8716 H   0  0  0  0  0  0  0  0  0  0  0  0
  1  2  2  0
  2  3  1  0
  4  3  2  0
  4  9  1  0
  5  4  1  0
  6  1  1  0
  6  5  2  0
  7  8  2  0
  8  9  1  0
  8 10  1  0
 11  7  1  0
 12 13  2  0
 14  6  1  0
 14 12  1  0
 15  1  1  0
 16 15  1  0
 17 22  2  0
 18 17  1  0
 19 20  1  0
 19 18  2  0
 20 21  2  0
 21 16  1  0
 21 22  1  0
  2 23  1  0
  3 24  1  0
  5 25  1  0
  9 26  1  0
 10 27  1  0
 10 28  1  0
 12 29  1  0
 14 30  1  0
 15 31  1  0
 15 32  1  0
 16 33  1  0
 16 34  1  0
 17 35  1  0
 18 36  1  0
 19 37  1  0
M  ISO  8  23  14  24  14  25  14  29   6  31   8  32   8  33   8  34   8
M  ISO  3  35  14  36  14  37  14
M  END
>  <minimizedAffinity>  (1) 
-4.84181643

>  <minimizedRMSD>  (1) 
0.962599039

$$$$
