
     RDKit          3D

 37 39  0  0  0  0  0  0  0  0999 V2000
   46.4760   30.6480   45.5060 C   0  0  0  0  0  0  0  0  0  0  0  0
   47.3280   30.3950   44.4640 C   0  0  0  0  0  0  0  0  0  0  0  0
   47.8800   31.3530   43.6740 C   0  0  0  0  0  0  0  0  0  0  0  0
   47.5780   32.6400   43.9210 C   0  0  0  0  0  0  0  0  0  0  0  0
   46.7240   32.9460   44.9630 C   0  0  0  0  0  0  0  0  0  0  0  0
   46.1660   31.9530   45.7660 C   0  0  0  0  0  0  0  0  0  0  0  0
   48.1850   33.6810   43.0500 C   0  0  0  0  0  0  0  0  0  0  0  0
   49.4580   33.7680   42.6550 C   0  0  0  0  0  0  0  0  0  0  0  0
   49.6520   34.8520   41.8640 N   0  0  0  0  0  0  0  0  0  0  0  0
   48.4460   35.4510   41.7740 C   0  0  0  0  0  0  0  0  0  0  0  0
   47.5580   34.7410   42.4920 N   0  0  0  0  0  0  0  0  0  0  0  0
   45.8910   32.6330   48.0690 C   0  0  0  0  0  0  0  0  0  0  0  0
   46.8730   32.1410   48.7400 O   0  0  0  0  0  0  0  0  0  0  0  0
   45.3760   32.6340   46.7380 N   0  0  0  0  0  0  0  0  0  0  0  0
   45.7950   29.7130   46.4110 C   0  0  0  0  0  0  0  0  0  0  0  0
   44.6500   29.0140   45.7190 C   0  0  0  0  0  0  0  0  0  0  0  0
   44.4450   26.5510   48.4260 C   0  0  0  0  0  0  0  0  0  0  0  0
   43.3820   25.7230   48.0110 C   0  0  0  0  0  0  0  0  0  0  0  0
   42.7670   26.0560   46.7930 C   0  0  0  0  0  0  0  0  0  0  0  0
   43.1970   27.1180   46.0900 N   0  0  0  0  0  0  0  0  0  0  0  0
   44.2230   27.8730   46.5460 C   0  0  0  0  0  0  0  0  0  0  0  0
   44.8350   27.6110   47.6730 N   0  0  0  0  0  0  0  0  0  0  0  0
   47.5825   29.3460   44.2524 H   0  0  0  0  0  0  0  0  0  0  0  0
   48.5582   31.0820   42.8514 H   0  0  0  0  0  0  0  0  0  0  0  0
   46.4784   33.9993   45.1638 H   0  0  0  0  0  0  0  0  0  0  0  0
   50.2461   33.0535   42.9349 H   0  0  0  0  0  0  0  0  0  0  0  0
   50.5332   35.1543   41.4248 H   0  0  0  0  0  0  0  0  0  0  0  0
   48.2260   36.3678   41.2074 H   0  0  0  0  0  0  0  0  0  0  0  0
   45.2502   33.2411   48.7245 H   0  0  0  0  0  0  0  0  0  0  0  0
   44.4890   33.0977   46.4948 H   0  0  0  0  0  0  0  0  0  0  0  0
   46.5177   28.9595   46.7575 H   0  0  0  0  0  0  0  0  0  0  0  0
   45.3905   30.2843   47.2595 H   0  0  0  0  0  0  0  0  0  0  0  0
   43.8110   29.7141   45.5931 H   0  0  0  0  0  0  0  0  0  0  0  0
   44.9717   28.6590   44.7288 H   0  0  0  0  0  0  0  0  0  0  0  0
   44.9646   26.3355   49.3713 H   0  0  0  0  0  0  0  0  0  0  0  0
   43.0516   24.8614   48.6097 H   0  0  0  0  0  0  0  0  0  0  0  0
   41.9328   25.4473   46.4141 H   0  0  0  0  0  0  0  0  0  0  0  0
  1  6  1  0
  1 15  1  0
  2  1  2  0
  3  4  2  0
  3  2  1  0
  4  5  1  0
  5  6  2  0
  6 14  1  0
  7  4  1  0
  8  7  2  0
  9  8  1  0
 10  9  1  0
 10 11  2  0
 11  7  1  0
 12 13  2  0
 14 12  1  0
 16 15  1  0
 16 21  1  0
 18 17  2  0
 19 18  1  0
 20 21  1  0
 20 19  2  0
 21 22  2  0
 22 17  1  0
  2 23  1  0
  3 24  1  0
  5 25  1  0
  8 26  1  0
  9 27  1  0
 10 28  1  0
 12 29  1  0
 14 30  1  0
 15 31  1  0
 15 32  1  0
 16 33  1  0
 16 34  1  0
 17 35  1  0
 18 36  1  0
 19 37  1  0
M  ISO  8  23  14  24  14  25  14  26  14  27   9  28  14  29   6  31   8
M  ISO  6  32   8  33   8  34   8  35  14  36  14  37  14
M  END
>  <minimizedAffinity>  (1) 
-4.8232646

>  <minimizedRMSD>  (1) 
7.94032717

$$$$
