
     RDKit          3D

 37 39  0  0  0  0  0  0  0  0999 V2000
   46.4700   31.2420   46.5390 C   0  0  0  0  0  0  0  0  0  0  0  0
   45.4220   31.1470   47.4070 C   0  0  0  0  0  0  0  0  0  0  0  0
   44.7960   29.9750   47.7120 C   0  0  0  0  0  0  0  0  0  0  0  0
   45.2370   28.8480   47.1230 C   0  0  0  0  0  0  0  0  0  0  0  0
   46.3150   28.9040   46.2250 C   0  0  0  0  0  0  0  0  0  0  0  0
   46.9190   30.1040   45.9440 C   0  0  0  0  0  0  0  0  0  0  0  0
   44.5580   27.5140   47.4400 C   0  0  0  0  0  0  0  0  0  0  0  0
   44.5870   26.7290   48.4980 C   0  0  0  0  0  0  0  0  0  0  0  0
   43.8710   25.5890   48.4930 C   0  0  0  0  0  0  0  0  0  0  0  0
   43.1480   25.3150   47.3720 C   0  0  0  0  0  0  0  0  0  0  0  0
   43.5460   26.8050   46.2830 S   0  0  0  0  0  0  0  0  0  0  0  0
   49.2020   29.3590   45.6200 C   0  0  0  0  0  0  0  0  0  0  0  0
   49.7430   29.2070   46.7760 O   0  0  0  0  0  0  0  0  0  0  0  0
   47.9720   29.7960   45.0190 N   0  0  0  0  0  0  0  0  0  0  0  0
   47.2180   32.4400   46.1130 C   0  0  0  0  0  0  0  0  0  0  0  0
   47.0100   32.7180   44.6350 C   0  0  0  0  0  0  0  0  0  0  0  0
   44.6000   35.3870   45.3740 C   0  0  0  0  0  0  0  0  0  0  0  0
   44.6120   36.1470   44.1790 C   0  0  0  0  0  0  0  0  0  0  0  0
   45.4610   35.7030   43.1620 C   0  0  0  0  0  0  0  0  0  0  0  0
   46.2140   34.6050   43.3430 N   0  0  0  0  0  0  0  0  0  0  0  0
   46.1620   33.9170   44.5080 C   0  0  0  0  0  0  0  0  0  0  0  0
   45.3860   34.2840   45.4980 N   0  0  0  0  0  0  0  0  0  0  0  0
   45.0616   32.0682   47.8881 H   0  0  0  0  0  0  0  0  0  0  0  0
   43.9541   29.9511   48.4196 H   0  0  0  0  0  0  0  0  0  0  0  0
   46.6767   27.9828   45.7450 H   0  0  0  0  0  0  0  0  0  0  0  0
   45.1901   27.0024   49.3763 H   0  0  0  0  0  0  0  0  0  0  0  0
   43.8700   24.9083   49.3571 H   0  0  0  0  0  0  0  0  0  0  0  0
   42.5013   24.4515   47.1572 H   0  0  0  0  0  0  0  0  0  0  0  0
   49.9112   29.0560   44.8356 H   0  0  0  0  0  0  0  0  0  0  0  0
   47.8548   29.8818   43.9993 H   0  0  0  0  0  0  0  0  0  0  0  0
   46.8694   33.3065   46.6940 H   0  0  0  0  0  0  0  0  0  0  0  0
   48.2895   32.2630   46.2876 H   0  0  0  0  0  0  0  0  0  0  0  0
   47.9808   32.8950   44.1490 H   0  0  0  0  0  0  0  0  0  0  0  0
   46.5266   31.8570   44.1502 H   0  0  0  0  0  0  0  0  0  0  0  0
   43.9503   35.6910   46.2079 H   0  0  0  0  0  0  0  0  0  0  0  0
   43.9843   37.0421   44.0576 H   0  0  0  0  0  0  0  0  0  0  0  0
   45.5131   36.2535   42.2111 H   0  0  0  0  0  0  0  0  0  0  0  0
  1  2  2  0
  2  3  1  0
  4  7  1  0
  4  3  2  0
  5  4  1  0
  6  5  2  0
  6  1  1  0
  7  8  2  0
  9  8  1  0
 10  9  2  0
 11 10  1  0
 11  7  1  0
 12 13  2  0
 14 12  1  0
 14  6  1  0
 15  1  1  0
 16 15  1  0
 17 22  2  0
 18 17  1  0
 19 20  1  0
 19 18  2  0
 20 21  2  0
 21 16  1  0
 21 22  1  0
  2 23  1  0
  3 24  1  0
  5 25  1  0
  8 26  1  0
  9 27  1  0
 10 28  1  0
 12 29  1  0
 14 30  1  0
 15 31  1  0
 15 32  1  0
 16 33  1  0
 16 34  1  0
 17 35  1  0
 18 36  1  0
 19 37  1  0
M  ISO  8  23  14  24  14  25  14  26  14  27  14  28  14  29   6  31   8
M  ISO  6  32   8  33   8  34   8  35  14  36  14  37  14
M  END
>  <minimizedAffinity>  (1) 
-4.70726299

>  <minimizedRMSD>  (1) 
2.2260201

$$$$
