
     RDKit          3D

 37 38  0  0  0  0  0  0  0  0999 V2000
   46.4860   31.1320   46.7060 C   0  0  0  0  0  0  0  0  0  0  0  0
   45.3540   31.0220   47.4590 C   0  0  0  0  0  0  0  0  0  0  0  0
   44.8080   29.8390   47.8440 C   0  0  0  0  0  0  0  0  0  0  0  0
   45.4090   28.6900   47.4640 C   0  0  0  0  0  0  0  0  0  0  0  0
   46.5590   28.7650   46.7000 C   0  0  0  0  0  0  0  0  0  0  0  0
   47.1060   29.9790   46.3150 C   0  0  0  0  0  0  0  0  0  0  0  0
   49.4320   29.3330   46.3700 C   0  0  0  0  0  0  0  0  0  0  0  0
   49.8120   29.2820   47.6000 O   0  0  0  0  0  0  0  0  0  0  0  0
   48.2860   29.6640   45.5710 N   0  0  0  0  0  0  0  0  0  0  0  0
   47.1650   32.3320   46.2140 C   0  0  0  0  0  0  0  0  0  0  0  0
   46.8970   32.5610   44.7380 C   0  0  0  0  0  0  0  0  0  0  0  0
   44.6240   35.3380   45.4620 C   0  0  0  0  0  0  0  0  0  0  0  0
   44.6560   36.0820   44.2550 C   0  0  0  0  0  0  0  0  0  0  0  0
   45.4660   35.5900   43.2400 C   0  0  0  0  0  0  0  0  0  0  0  0
   46.1680   34.4660   43.4270 N   0  0  0  0  0  0  0  0  0  0  0  0
   46.0980   33.7950   44.6020 C   0  0  0  0  0  0  0  0  0  0  0  0
   45.3530   34.2070   45.5990 N   0  0  0  0  0  0  0  0  0  0  0  0
   44.8080   27.3960   47.8860 C   0  0  0  0  0  0  0  0  0  0  0  0
   43.9290   26.7170   47.1830 C   0  0  0  0  0  0  0  0  0  0  0  0
   43.3900   25.4170   47.7160 C   0  0  0  0  0  0  0  0  0  0  0  0
   44.8520   31.9487   47.7741 H   0  0  0  0  0  0  0  0  0  0  0  0
   43.8930   29.8170   48.4542 H   0  0  0  0  0  0  0  0  0  0  0  0
   47.0545   27.8336   46.3885 H   0  0  0  0  0  0  0  0  0  0  0  0
   50.2588   29.0193   45.7158 H   0  0  0  0  0  0  0  0  0  0  0  0
   48.3117   29.6738   44.5414 H   0  0  0  0  0  0  0  0  0  0  0  0
   46.8056   33.2032   46.7813 H   0  0  0  0  0  0  0  0  0  0  0  0
   48.2479   32.1940   46.3493 H   0  0  0  0  0  0  0  0  0  0  0  0
   47.8495   32.6725   44.1992 H   0  0  0  0  0  0  0  0  0  0  0  0
   46.3516   31.7055   44.3129 H   0  0  0  0  0  0  0  0  0  0  0  0
   43.9983   35.6852   46.2974 H   0  0  0  0  0  0  0  0  0  0  0  0
   44.0682   37.0032   44.1291 H   0  0  0  0  0  0  0  0  0  0  0  0
   45.5307   36.1248   42.2810 H   0  0  0  0  0  0  0  0  0  0  0  0
   45.1212   26.9782   48.8542 H   0  0  0  0  0  0  0  0  0  0  0  0
   43.5887   27.0977   46.2087 H   0  0  0  0  0  0  0  0  0  0  0  0
   43.3994   25.4396   48.8157 H   0  0  0  0  0  0  0  0  0  0  0  0
   42.3587   25.2746   47.3609 H   0  0  0  0  0  0  0  0  0  0  0  0
   44.0180   24.5866   47.3609 H   0  0  0  0  0  0  0  0  0  0  0  0
  1  2  2  0
  2  3  1  0
  4  3  2  0
  4 18  1  0
  5  4  1  0
  6  5  2  0
  6  1  1  0
  7  8  2  0
  9  6  1  0
  9  7  1  0
 10  1  1  0
 11 10  1  0
 12 17  2  0
 13 12  1  0
 14 15  1  0
 14 13  2  0
 15 16  2  0
 16 11  1  0
 16 17  1  0
 19 20  1  0
 19 18  2  0
  2 21  1  0
  3 22  1  0
  5 23  1  0
  7 24  1  0
  9 25  1  0
 10 26  1  0
 10 27  1  0
 11 28  1  0
 11 29  1  0
 12 30  1  0
 13 31  1  0
 14 32  1  0
 18 33  1  0
 19 34  1  0
 20 35  1  0
 20 36  1  0
 20 37  1  0
M  ISO  8  21  14  22  14  23  14  24   6  26   8  27   8  28   8  29   8
M  ISO  6  30  14  31  14  32  14  35   8  36   8  37   8
M  END
>  <minimizedAffinity>  (1) 
-4.57162476

>  <minimizedRMSD>  (1) 
1.81085694

$$$$
