
     RDKit          3D

 32 33  0  0  0  0  0  0  0  0999 V2000
   46.3100   31.5270   46.8730 C   0  0  0  0  0  0  0  0  0  0  0  0
   45.3800   31.6600   47.8860 C   0  0  0  0  0  0  0  0  0  0  0  0
   44.8750   30.6050   48.5910 C   0  0  0  0  0  0  0  0  0  0  0  0
   45.3130   29.3420   48.2770 C   0  0  0  0  0  0  0  0  0  0  0  0
   46.2390   29.1960   47.2700 C   0  0  0  0  0  0  0  0  0  0  0  0
   46.7420   30.2720   46.5680 C   0  0  0  0  0  0  0  0  0  0  0  0
   48.9710   29.4190   46.1750 C   0  0  0  0  0  0  0  0  0  0  0  0
   49.6240   29.4880   47.2820 O   0  0  0  0  0  0  0  0  0  0  0  0
   47.6820   29.7330   45.6330 N   0  0  0  0  0  0  0  0  0  0  0  0
   46.9210   32.5610   46.0460 C   0  0  0  0  0  0  0  0  0  0  0  0
   46.3450   32.5580   44.6560 C   0  0  0  0  0  0  0  0  0  0  0  0
   44.5760   35.7510   44.9820 C   0  0  0  0  0  0  0  0  0  0  0  0
   44.8630   36.3880   43.7480 C   0  0  0  0  0  0  0  0  0  0  0  0
   45.6660   35.6810   42.8480 C   0  0  0  0  0  0  0  0  0  0  0  0
   46.1220   34.4630   43.1700 N   0  0  0  0  0  0  0  0  0  0  0  0
   45.8160   33.9040   44.3630 C   0  0  0  0  0  0  0  0  0  0  0  0
   45.0680   34.5160   45.2490 N   0  0  0  0  0  0  0  0  0  0  0  0
   44.7240   28.3000   49.0720 N   0  0  0  0  0  0  0  0  0  0  0  0
   45.0270   32.6708   48.1385 H   0  0  0  0  0  0  0  0  0  0  0  0
   44.1360   30.7630   49.3903 H   0  0  0  0  0  0  0  0  0  0  0  0
   46.5909   28.1854   47.0155 H   0  0  0  0  0  0  0  0  0  0  0  0
   49.6067   28.9769   45.3937 H   0  0  0  0  0  0  0  0  0  0  0  0
   47.4487   29.5816   44.6413 H   0  0  0  0  0  0  0  0  0  0  0  0
   46.7396   33.5430   46.5073 H   0  0  0  0  0  0  0  0  0  0  0  0
   47.9999   32.3583   45.9761 H   0  0  0  0  0  0  0  0  0  0  0  0
   47.1307   32.3024   43.9298 H   0  0  0  0  0  0  0  0  0  0  0  0
   45.5384   31.8134   44.5849 H   0  0  0  0  0  0  0  0  0  0  0  0
   43.9498   36.2624   45.7279 H   0  0  0  0  0  0  0  0  0  0  0  0
   44.4731   37.3888   43.5106 H   0  0  0  0  0  0  0  0  0  0  0  0
   45.9235   36.1249   41.8751 H   0  0  0  0  0  0  0  0  0  0  0  0
   44.9890   27.3177   48.9117 H   0  0  0  0  0  0  0  0  0  0  0  0
   44.0368   28.5354   49.8022 H   0  0  0  0  0  0  0  0  0  0  0  0
  1  2  2  0
  2  3  1  0
  4  3  2  0
  4 18  1  0
  5  4  1  0
  6  1  1  0
  6  5  2  0
  7  8  2  0
  9  7  1  0
  9  6  1  0
 10  1  1  0
 11 10  1  0
 12 17  2  0
 13 12  1  0
 14 15  1  0
 14 13  2  0
 15 16  2  0
 16 11  1  0
 16 17  1  0
  2 19  1  0
  3 20  1  0
  5 21  1  0
  7 22  1  0
  9 23  1  0
 10 24  1  0
 10 25  1  0
 11 26  1  0
 11 27  1  0
 12 28  1  0
 13 29  1  0
 14 30  1  0
 18 31  1  0
 18 32  1  0
M  ISO  8  19  14  20  14  21  14  22   6  24   8  25   8  26   8  27   8
M  ISO  3  28  14  29  14  30  14
M  END
>  <minimizedAffinity>  (1) 
-4.41341829

>  <minimizedRMSD>  (1) 
0.709499478

$$$$
