
     RDKit          3D

 33 34  0  0  0  0  0  0  0  0999 V2000
   46.4810   31.0340   46.7550 C   0  0  0  0  0  0  0  0  0  0  0  0
   45.3250   30.9090   47.4780 C   0  0  0  0  0  0  0  0  0  0  0  0
   44.8220   29.7200   47.9020 C   0  0  0  0  0  0  0  0  0  0  0  0
   45.4970   28.5880   47.5920 C   0  0  0  0  0  0  0  0  0  0  0  0
   46.6850   28.6800   46.8540 C   0  0  0  0  0  0  0  0  0  0  0  0
   47.1650   29.8990   46.4440 C   0  0  0  0  0  0  0  0  0  0  0  0
   49.5200   29.3420   46.5670 C   0  0  0  0  0  0  0  0  0  0  0  0
   49.8650   29.3220   47.8050 O   0  0  0  0  0  0  0  0  0  0  0  0
   48.3810   29.6150   45.7380 N   0  0  0  0  0  0  0  0  0  0  0  0
   47.1270   32.2460   46.2250 C   0  0  0  0  0  0  0  0  0  0  0  0
   46.8080   32.4530   44.7680 C   0  0  0  0  0  0  0  0  0  0  0  0
   44.6360   35.3230   45.4840 C   0  0  0  0  0  0  0  0  0  0  0  0
   44.6910   36.0600   44.2780 C   0  0  0  0  0  0  0  0  0  0  0  0
   45.4800   35.5350   43.2640 C   0  0  0  0  0  0  0  0  0  0  0  0
   46.1460   34.3780   43.4520 N   0  0  0  0  0  0  0  0  0  0  0  0
   46.0530   33.7190   44.6290 C   0  0  0  0  0  0  0  0  0  0  0  0
   45.3260   34.1620   45.6230 N   0  0  0  0  0  0  0  0  0  0  0  0
   44.8780   27.3060   48.0950 C   0  0  0  0  0  0  0  0  0  0  0  0
   44.7708   31.8250   47.7305 H   0  0  0  0  0  0  0  0  0  0  0  0
   43.8889   29.6782   48.4831 H   0  0  0  0  0  0  0  0  0  0  0  0
   47.2394   27.7644   46.6003 H   0  0  0  0  0  0  0  0  0  0  0  0
   50.3766   29.0571   45.9385 H   0  0  0  0  0  0  0  0  0  0  0  0
   48.4329   29.6076   44.7093 H   0  0  0  0  0  0  0  0  0  0  0  0
   46.7729   33.1175   46.7952 H   0  0  0  0  0  0  0  0  0  0  0  0
   48.2159   32.1268   46.3249 H   0  0  0  0  0  0  0  0  0  0  0  0
   47.7410   32.5116   44.1883 H   0  0  0  0  0  0  0  0  0  0  0  0
   46.2080   31.6122   44.3898 H   0  0  0  0  0  0  0  0  0  0  0  0
   44.0262   35.6954   46.3203 H   0  0  0  0  0  0  0  0  0  0  0  0
   44.1366   37.0014   44.1502 H   0  0  0  0  0  0  0  0  0  0  0  0
   45.5622   36.0648   42.3035 H   0  0  0  0  0  0  0  0  0  0  0  0
   44.8779   27.3058   49.1950 H   0  0  0  0  0  0  0  0  0  0  0  0
   43.8438   27.2296   47.7282 H   0  0  0  0  0  0  0  0  0  0  0  0
   45.4614   26.4486   47.7282 H   0  0  0  0  0  0  0  0  0  0  0  0
  1  2  2  0
  2  3  1  0
  4  3  2  0
  4 18  1  0
  5  4  1  0
  6  1  1  0
  6  5  2  0
  7  8  2  0
  9  6  1  0
  9  7  1  0
 10  1  1  0
 11 10  1  0
 12 17  2  0
 13 12  1  0
 14 15  1  0
 14 13  2  0
 15 16  2  0
 16 11  1  0
 16 17  1  0
  2 19  1  0
  3 20  1  0
  5 21  1  0
  7 22  1  0
  9 23  1  0
 10 24  1  0
 10 25  1  0
 11 26  1  0
 11 27  1  0
 12 28  1  0
 13 29  1  0
 14 30  1  0
 18 31  1  0
 18 32  1  0
 18 33  1  0
M  ISO  8  19  14  20  14  21  14  22   6  24   8  25   8  26   8  27   8
M  ISO  6  28  14  29  14  30  14  31   8  32   8  33   8
M  END
>  <minimizedAffinity>  (1) 
-4.27727175

>  <minimizedRMSD>  (1) 
1.39462125

$$$$
