
     RDKit          3D

 19 20  0  0  0  0  0  0  0  0999 V2000
   45.9850   34.4670   43.9270 C   0  0  0  0  0  0  0  0  0  0  0  0
   46.9670   33.4740   43.7430 C   0  0  0  0  0  0  0  0  0  0  0  0
   47.2040   32.5680   44.7630 C   0  0  0  0  0  0  0  0  0  0  0  0
   46.4670   32.6910   45.8930 N   0  0  0  0  0  0  0  0  0  0  0  0
   45.5340   33.6430   46.0530 C   0  0  0  0  0  0  0  0  0  0  0  0
   45.2950   34.5290   45.0690 N   0  0  0  0  0  0  0  0  0  0  0  0
   47.6430   33.5020   42.4850 N   0  0  0  0  0  0  0  0  0  0  0  0
   45.7060   35.4550   42.8530 C   0  0  0  0  0  0  0  0  0  0  0  0
   44.3130   35.6700   42.3680 C   0  0  0  0  0  0  0  0  0  0  0  0
   44.9860   36.6730   43.2540 C   0  0  0  0  0  0  0  0  0  0  0  0
   47.9624   31.7779   44.6596 H   0  0  0  0  0  0  0  0  0  0  0  0
   44.9631   33.6989   46.9916 H   0  0  0  0  0  0  0  0  0  0  0  0
   48.3742   32.8068   42.2777 H   0  0  0  0  0  0  0  0  0  0  0  0
   47.3993   34.2174   41.7852 H   0  0  0  0  0  0  0  0  0  0  0  0
   46.6507   35.2200   42.3409 H   0  0  0  0  0  0  0  0  0  0  0  0
   44.1261   35.9046   41.3097 H   0  0  0  0  0  0  0  0  0  0  0  0
   43.3738   35.0985   42.4030 H   0  0  0  0  0  0  0  0  0  0  0  0
   44.6534   36.7968   44.2952 H   0  0  0  0  0  0  0  0  0  0  0  0
   45.1901   37.7520   43.1898 H   0  0  0  0  0  0  0  0  0  0  0  0
  1  6  1  0
  2  1  2  0
  2  3  1  0
  3  4  2  0
  4  5  1  0
  6  5  2  0
  7  2  1  0
  8 10  1  0
  8  1  1  0
  9  8  1  0
  9 10  1  0
  3 11  1  0
  5 12  1  0
  7 13  1  0
  7 14  1  0
  8 15  1  0
  9 16  1  0
  9 17  1  0
 10 18  1  0
 10 19  1  0
M  ISO  7  11  14  12  14  15  13  16  13  17  13  18  13  19  13
M  END
>  <minimizedAffinity>  (1) 
-3.24077535

>  <minimizedRMSD>  (1) 
2.83083487

$$$$
