
     RDKit          3D

 16 16  0  0  0  0  0  0  0  0999 V2000
   45.3030   34.5680   45.0240 C   0  0  0  0  0  0  0  0  0  0  0  0
   45.2660   33.9400   46.2670 C   0  0  0  0  0  0  0  0  0  0  0  0
   46.1660   32.9010   46.4810 C   0  0  0  0  0  0  0  0  0  0  0  0
   47.0060   32.5780   45.4730 N   0  0  0  0  0  0  0  0  0  0  0  0
   47.0190   33.2010   44.2840 C   0  0  0  0  0  0  0  0  0  0  0  0
   46.1600   34.2100   44.0470 N   0  0  0  0  0  0  0  0  0  0  0  0
   43.9690   35.3820   43.2960 C   0  0  0  0  0  0  0  0  0  0  0  0
   44.4110   34.2810   42.8400 O   0  0  0  0  0  0  0  0  0  0  0  0
   44.4480   35.6610   44.6230 N   0  0  0  0  0  0  0  0  0  0  0  0
   44.3060   34.4290   47.1940 N   0  0  0  0  0  0  0  0  0  0  0  0
   46.1929   32.3605   47.4387 H   0  0  0  0  0  0  0  0  0  0  0  0
   47.7299   32.8878   43.5052 H   0  0  0  0  0  0  0  0  0  0  0  0
   43.2947   36.0478   42.7374 H   0  0  0  0  0  0  0  0  0  0  0  0
   44.2216   36.4925   45.1872 H   0  0  0  0  0  0  0  0  0  0  0  0
   44.2309   34.0048   48.1296 H   0  0  0  0  0  0  0  0  0  0  0  0
   43.6854   35.2076   46.9302 H   0  0  0  0  0  0  0  0  0  0  0  0
  1  2  2  0
  2  3  1  0
  2 10  1  0
  4  3  2  0
  5  4  1  0
  6  5  2  0
  6  1  1  0
  7  9  1  0
  8  7  2  0
  9  1  1  0
  3 11  1  0
  5 12  1  0
  7 13  1  0
  9 14  1  0
 10 15  1  0
 10 16  1  0
M  ISO  3  11  14  12  14  13   6
M  END
>  <minimizedAffinity>  (1) 
-3.99117661

>  <minimizedRMSD>  (1) 
3.22715378

$$$$
