
     RDKit          3D

 31 32  0  0  0  0  0  0  0  0999 V2000
   46.0520   32.9190   43.1310 C   0  0  0  0  0  0  0  0  0  0  0  0
   44.9750   33.3140   42.3610 C   0  0  0  0  0  0  0  0  0  0  0  0
   45.2380   34.0870   41.2470 C   0  0  0  0  0  0  0  0  0  0  0  0
   46.5170   34.3980   40.9920 N   0  0  0  0  0  0  0  0  0  0  0  0
   47.5490   34.0020   41.7530 C   0  0  0  0  0  0  0  0  0  0  0  0
   47.3330   33.2480   42.8480 N   0  0  0  0  0  0  0  0  0  0  0  0
   46.1820   32.9540   45.4630 C   0  0  0  0  0  0  0  0  0  0  0  0
   46.3570   34.1590   45.1370 O   0  0  0  0  0  0  0  0  0  0  0  0
   45.9820   32.1080   44.3360 N   0  0  0  0  0  0  0  0  0  0  0  0
   46.1750   32.4510   46.7960 N   0  0  0  0  0  0  0  0  0  0  0  0
   45.0570   32.6710   47.6640 C   0  0  0  0  0  0  0  0  0  0  0  0
   44.8820   31.3740   48.4610 C   0  0  0  0  0  0  0  0  0  0  0  0
   46.0770   31.1160   49.3350 C   0  0  0  0  0  0  0  0  0  0  0  0
   47.3650   31.6280   48.7740 C   0  0  0  0  0  0  0  0  0  0  0  0
   47.3400   31.7090   47.2420 C   0  0  0  0  0  0  0  0  0  0  0  0
   43.6930   32.8790   42.8040 N   0  0  0  0  0  0  0  0  0  0  0  0
   44.4262   34.4354   40.5916 H   0  0  0  0  0  0  0  0  0  0  0  0
   48.5742   34.2940   41.4817 H   0  0  0  0  0  0  0  0  0  0  0  0
   45.8156   31.0920   44.3685 H   0  0  0  0  0  0  0  0  0  0  0  0
   45.2594   33.5127   48.3427 H   0  0  0  0  0  0  0  0  0  0  0  0
   44.1486   32.9219   47.0966 H   0  0  0  0  0  0  0  0  0  0  0  0
   43.9853   31.4576   49.0926 H   0  0  0  0  0  0  0  0  0  0  0  0
   44.7772   30.5383   47.7535 H   0  0  0  0  0  0  0  0  0  0  0  0
   45.9058   31.6023   50.3067 H   0  0  0  0  0  0  0  0  0  0  0  0
   46.1791   30.0240   49.4188 H   0  0  0  0  0  0  0  0  0  0  0  0
   47.5525   32.6335   49.1786 H   0  0  0  0  0  0  0  0  0  0  0  0
   48.1609   30.9252   49.0615 H   0  0  0  0  0  0  0  0  0  0  0  0
   47.3037   30.6916   46.8253 H   0  0  0  0  0  0  0  0  0  0  0  0
   48.2474   32.2256   46.8960 H   0  0  0  0  0  0  0  0  0  0  0  0
   42.8492   33.1397   42.2740 H   0  0  0  0  0  0  0  0  0  0  0  0
   43.6098   32.3038   43.6543 H   0  0  0  0  0  0  0  0  0  0  0  0
  1  9  1  0
  2 16  1  0
  2  1  2  0
  3  2  1  0
  4  3  2  0
  4  5  1  0
  5  6  2  0
  6  1  1  0
  7 10  1  0
  8  7  2  0
  9  7  1  0
 10 15  1  0
 10 11  1  0
 11 12  1  0
 12 13  1  0
 14 13  1  0
 15 14  1  0
  3 17  1  0
  5 18  1  0
  9 19  1  0
 11 20  1  0
 11 21  1  0
 12 22  1  0
 12 23  1  0
 13 24  1  0
 13 25  1  0
 14 26  1  0
 14 27  1  0
 15 28  1  0
 15 29  1  0
 16 30  1  0
 16 31  1  0
M  ISO  8  17  14  18  14  20  13  21  13  22  13  23  13  24  13  25  13
M  ISO  4  26  13  27  13  28  13  29  13
M  END
>  <minimizedAffinity>  (1) 
-4.48784781

>  <minimizedRMSD>  (1) 
6.40504503

$$$$
