
     RDKit          3D

 27 29  0  0  0  0  0  0  0  0999 V2000
   46.8870   33.3790   44.3930 C   0  0  0  0  0  0  0  0  0  0  0  0
   46.2310   33.2820   45.6900 N   0  0  0  0  0  0  0  0  0  0  0  0
   45.2220   34.0980   46.0520 C   0  0  0  0  0  0  0  0  0  0  0  0
   44.8020   33.7830   47.3100 N   0  0  0  0  0  0  0  0  0  0  0  0
   45.5610   32.7450   47.7590 C   0  0  0  0  0  0  0  0  0  0  0  0
   45.6430   31.9830   48.9100 C   0  0  0  0  0  0  0  0  0  0  0  0
   46.5640   30.9960   48.9900 N   0  0  0  0  0  0  0  0  0  0  0  0
   47.4030   30.7220   48.0010 C   0  0  0  0  0  0  0  0  0  0  0  0
   47.3510   31.4540   46.8520 N   0  0  0  0  0  0  0  0  0  0  0  0
   46.4420   32.4580   46.7220 C   0  0  0  0  0  0  0  0  0  0  0  0
   46.1680   34.4820   43.6220 C   0  0  0  0  0  0  0  0  0  0  0  0
   46.9980   33.8540   40.0580 C   0  0  0  0  0  0  0  0  0  0  0  0
   48.1640   34.6380   39.8940 C   0  0  0  0  0  0  0  0  0  0  0  0
   48.6110   35.3420   41.0010 C   0  0  0  0  0  0  0  0  0  0  0  0
   47.9240   35.2470   42.1630 N   0  0  0  0  0  0  0  0  0  0  0  0
   46.8040   34.4800   42.2790 C   0  0  0  0  0  0  0  0  0  0  0  0
   46.3500   33.7880   41.2280 N   0  0  0  0  0  0  0  0  0  0  0  0
   47.9485   33.6368   44.5229 H   0  0  0  0  0  0  0  0  0  0  0  0
   46.8404   32.4221   43.8524 H   0  0  0  0  0  0  0  0  0  0  0  0
   44.8003   34.8984   45.4263 H   0  0  0  0  0  0  0  0  0  0  0  0
   44.9646   32.1781   49.7536 H   0  0  0  0  0  0  0  0  0  0  0  0
   48.1366   29.9092   48.1067 H   0  0  0  0  0  0  0  0  0  0  0  0
   45.0931   34.2623   43.5425 H   0  0  0  0  0  0  0  0  0  0  0  0
   46.2504   35.4594   44.1200 H   0  0  0  0  0  0  0  0  0  0  0  0
   46.6129   33.2827   39.2005 H   0  0  0  0  0  0  0  0  0  0  0  0
   48.6925   34.6867   38.9305 H   0  0  0  0  0  0  0  0  0  0  0  0
   49.5121   35.9695   40.9359 H   0  0  0  0  0  0  0  0  0  0  0  0
  1  2  1  0
  2  3  1  0
  2 10  1  0
  3  4  2  0
  4  5  1  0
  5  6  2  0
  6  7  1  0
  8  7  2  0
  9  8  1  0
 10  9  2  0
 10  5  1  0
 11  1  1  0
 12 17  2  0
 13 12  1  0
 13 14  2  0
 14 15  1  0
 15 16  2  0
 16 11  1  0
 17 16  1  0
  1 18  1  0
  1 19  1  0
  3 20  1  0
  6 21  1  0
  8 22  1  0
 11 23  1  0
 11 24  1  0
 12 25  1  0
 13 26  1  0
 14 27  1  0
M  ISO  8  18   8  19   8  20  14  21  14  22  14  23   8  24   8  25  14
M  ISO  2  26  14  27  14
M  END
>  <minimizedAffinity>  (1) 
-4.65448523

>  <minimizedRMSD>  (1) 
3.83855724

$$$$
