
     RDKit          3D

 32 33  0  0  0  0  0  0  0  0999 V2000
   44.0510   34.9800   42.5490 C   0  0  0  0  0  0  0  0  0  0  0  0
   44.0730   33.7100   42.6660 O   0  0  0  0  0  0  0  0  0  0  0  0
   44.9290   35.6300   43.4540 N   0  0  0  0  0  0  0  0  0  0  0  0
   45.5840   34.6240   44.2770 C   0  0  0  0  0  0  0  0  0  0  0  0
   45.2830   34.3840   45.5940 C   0  0  0  0  0  0  0  0  0  0  0  0
   46.0230   33.3740   46.2080 C   0  0  0  0  0  0  0  0  0  0  0  0
   46.9540   32.7260   45.4830 N   0  0  0  0  0  0  0  0  0  0  0  0
   47.2110   33.0000   44.1910 C   0  0  0  0  0  0  0  0  0  0  0  0
   46.5210   33.9720   43.5460 N   0  0  0  0  0  0  0  0  0  0  0  0
   44.2740   35.1620   46.1910 N   0  0  0  0  0  0  0  0  0  0  0  0
   43.2570   35.6870   41.6350 O   0  0  0  0  0  0  0  0  0  0  0  0
   40.3370   35.2770   38.8090 N   0  0  0  0  0  0  0  0  0  0  0  0
   41.7770   35.4130   38.7440 C   0  0  0  0  0  0  0  0  0  0  0  0
   42.3820   34.5110   39.7800 C   0  0  0  0  0  0  0  0  0  0  0  0
   42.0700   35.0820   41.1540 C   0  0  0  0  0  0  0  0  0  0  0  0
   40.8940   36.0060   41.0850 C   0  0  0  0  0  0  0  0  0  0  0  0
   39.8770   35.3060   40.1730 C   0  0  0  0  0  0  0  0  0  0  0  0
   45.0785   36.6471   43.5182 H   0  0  0  0  0  0  0  0  0  0  0  0
   45.8497   33.1124   47.2623 H   0  0  0  0  0  0  0  0  0  0  0  0
   47.9856   32.4318   43.6551 H   0  0  0  0  0  0  0  0  0  0  0  0
   44.0219   35.0091   47.1779 H   0  0  0  0  0  0  0  0  0  0  0  0
   43.7875   35.8844   45.6411 H   0  0  0  0  0  0  0  0  0  0  0  0
   40.0636   34.3812   38.3803 H   0  0  0  0  0  0  0  0  0  0  0  0
   42.1334   35.1232   37.7445 H   0  0  0  0  0  0  0  0  0  0  0  0
   42.0684   36.4567   38.9330 H   0  0  0  0  0  0  0  0  0  0  0  0
   41.9528   33.5022   39.6906 H   0  0  0  0  0  0  0  0  0  0  0  0
   43.4706   34.4462   39.6357 H   0  0  0  0  0  0  0  0  0  0  0  0
   41.7688   34.3006   41.8672 H   0  0  0  0  0  0  0  0  0  0  0  0
   40.4683   36.1623   42.0872 H   0  0  0  0  0  0  0  0  0  0  0  0
   41.1750   36.9969   40.6987 H   0  0  0  0  0  0  0  0  0  0  0  0
   38.9211   35.8484   40.2182 H   0  0  0  0  0  0  0  0  0  0  0  0
   39.7509   34.2702   40.5210 H   0  0  0  0  0  0  0  0  0  0  0  0
  1  2  2  0
  1  3  1  0
  3  4  1  0
  4  5  2  0
  5 10  1  0
  5  6  1  0
  7  6  2  0
  8  7  1  0
  9  8  2  0
  9  4  1  0
 11  1  1  0
 12 17  1  0
 13 12  1  0
 13 14  1  0
 14 15  1  0
 15 11  1  0
 16 15  1  0
 17 16  1  0
  3 18  1  0
  6 19  1  0
  8 20  1  0
 10 21  1  0
 10 22  1  0
 12 23  1  0
 13 24  1  0
 13 25  1  0
 14 26  1  0
 14 27  1  0
 15 28  1  0
 16 29  1  0
 16 30  1  0
 17 31  1  0
 17 32  1  0
M  ISO  8  19  14  20  14  23   5  24  13  25  13  26  13  27  13  28  13
M  ISO  4  29  13  30  13  31  13  32  13
M  END
>  <minimizedAffinity>  (1) 
-5.32413006

>  <minimizedRMSD>  (1) 
1.25237298

$$$$
