
     RDKit          3D

 24 24  0  0  0  0  0  0  0  0999 V2000
   45.6560   34.6380   44.2930 C   0  0  0  0  0  0  0  0  0  0  0  0
   45.2720   34.3870   45.5870 C   0  0  0  0  0  0  0  0  0  0  0  0
   45.9270   33.3220   46.2050 C   0  0  0  0  0  0  0  0  0  0  0  0
   46.8560   32.6480   45.5030 N   0  0  0  0  0  0  0  0  0  0  0  0
   47.1960   32.9310   44.2420 C   0  0  0  0  0  0  0  0  0  0  0  0
   46.5830   33.9600   43.5980 N   0  0  0  0  0  0  0  0  0  0  0  0
   44.1910   35.1150   42.5130 C   0  0  0  0  0  0  0  0  0  0  0  0
   44.1220   33.8500   42.6250 O   0  0  0  0  0  0  0  0  0  0  0  0
   45.1020   35.6970   43.4520 N   0  0  0  0  0  0  0  0  0  0  0  0
   43.4900   35.9040   41.6030 O   0  0  0  0  0  0  0  0  0  0  0  0
   42.3120   35.4050   41.0320 C   0  0  0  0  0  0  0  0  0  0  0  0
   41.1030   35.8910   41.0330 C   0  0  0  0  0  0  0  0  0  0  0  0
   39.9180   35.2740   40.3890 C   0  0  0  0  0  0  0  0  0  0  0  0
   44.2770   35.2020   46.1610 N   0  0  0  0  0  0  0  0  0  0  0  0
   45.6898   33.0399   47.2414 H   0  0  0  0  0  0  0  0  0  0  0  0
   47.9659   32.3361   43.7288 H   0  0  0  0  0  0  0  0  0  0  0  0
   45.3298   36.6990   43.5231 H   0  0  0  0  0  0  0  0  0  0  0  0
   42.4259   34.4504   40.4974 H   0  0  0  0  0  0  0  0  0  0  0  0
   40.9473   36.8446   41.5587 H   0  0  0  0  0  0  0  0  0  0  0  0
   39.2256   34.9135   41.1640 H   0  0  0  0  0  0  0  0  0  0  0  0
   39.4100   36.0221   39.7627 H   0  0  0  0  0  0  0  0  0  0  0  0
   40.2395   34.4288   39.7627 H   0  0  0  0  0  0  0  0  0  0  0  0
   43.9705   35.0353   47.1301 H   0  0  0  0  0  0  0  0  0  0  0  0
   43.8559   35.9647   45.6117 H   0  0  0  0  0  0  0  0  0  0  0  0
  1  2  2  0
  2 14  1  0
  2  3  1  0
  4  3  2  0
  5  4  1  0
  6  5  2  0
  6  1  1  0
  7  8  2  0
  7  9  1  0
  9  1  1  0
 10  7  1  0
 11 12  2  0
 11 10  1  0
 13 12  1  0
  3 15  1  0
  5 16  1  0
  9 17  1  0
 11 18  1  0
 12 19  1  0
 13 20  1  0
 13 21  1  0
 13 22  1  0
 14 23  1  0
 14 24  1  0
M  ISO  5  15  14  16  14  20   8  21   8  22   8
M  END
>  <minimizedAffinity>  (1) 
-4.65570498

>  <minimizedRMSD>  (1) 
0.603556335

$$$$
