
     RDKit          3D

 27 28  0  0  0  0  0  0  0  0999 V2000
   44.4020   34.8650   41.9840 C   0  0  0  0  0  0  0  0  0  0  0  0
   44.1890   33.6570   42.3350 O   0  0  0  0  0  0  0  0  0  0  0  0
   45.3410   35.5290   42.8310 N   0  0  0  0  0  0  0  0  0  0  0  0
   45.7620   34.6040   43.8720 C   0  0  0  0  0  0  0  0  0  0  0  0
   45.2240   34.5570   45.1340 C   0  0  0  0  0  0  0  0  0  0  0  0
   45.7580   33.6010   45.9890 C   0  0  0  0  0  0  0  0  0  0  0  0
   46.7440   32.8080   45.5270 N   0  0  0  0  0  0  0  0  0  0  0  0
   47.2420   32.8900   44.2770 C   0  0  0  0  0  0  0  0  0  0  0  0
   46.7420   33.8130   43.4160 N   0  0  0  0  0  0  0  0  0  0  0  0
   44.1940   35.4670   45.4420 N   0  0  0  0  0  0  0  0  0  0  0  0
   43.8000   35.5070   40.8910 O   0  0  0  0  0  0  0  0  0  0  0  0
   43.6730   33.6730   38.5870 Cl  0  0  0  0  0  0  0  0  0  0  0  0
   42.3220   34.3260   39.4900 C   0  0  0  0  0  0  0  0  0  0  0  0
   42.4850   35.1910   40.5700 C   0  0  0  0  0  0  0  0  0  0  0  0
   41.3880   35.6660   41.2330 C   0  0  0  0  0  0  0  0  0  0  0  0
   40.0900   35.3370   40.8970 C   0  0  0  0  0  0  0  0  0  0  0  0
   39.9010   34.4720   39.8180 C   0  0  0  0  0  0  0  0  0  0  0  0
   38.2920   33.9880   39.3030 Cl  0  0  0  0  0  0  0  0  0  0  0  0
   41.0200   34.0040   39.1620 C   0  0  0  0  0  0  0  0  0  0  0  0
   45.6658   36.5004   42.7229 H   0  0  0  0  0  0  0  0  0  0  0  0
   45.3847   33.4942   47.0182 H   0  0  0  0  0  0  0  0  0  0  0  0
   48.0481   32.2136   43.9567 H   0  0  0  0  0  0  0  0  0  0  0  0
   43.7655   35.4621   46.3786 H   0  0  0  0  0  0  0  0  0  0  0  0
   43.8693   36.1374   44.7306 H   0  0  0  0  0  0  0  0  0  0  0  0
   41.5483   36.3480   42.0810 H   0  0  0  0  0  0  0  0  0  0  0  0
   39.2357   35.7419   41.4593 H   0  0  0  0  0  0  0  0  0  0  0  0
   40.8635   33.3224   38.3129 H   0  0  0  0  0  0  0  0  0  0  0  0
  1  2  2  0
  1  3  1  0
  3  4  1  0
  4  5  2  0
  5 10  1  0
  5  6  1  0
  7  6  2  0
  8  7  1  0
  9  4  1  0
  9  8  2  0
 11  1  1  0
 12 13  1  0
 13 14  2  0
 14 11  1  0
 14 15  1  0
 16 15  2  0
 17 16  1  0
 18 17  1  0
 19 13  1  0
 19 17  2  0
  3 20  1  0
  6 21  1  0
  8 22  1  0
 10 23  1  0
 10 24  1  0
 15 25  1  0
 16 26  1  0
 19 27  1  0
M  ISO  5  21  14  22  14  25  14  26  14  27  14
M  END
>  <minimizedAffinity>  (1) 
-5.76934004

>  <minimizedRMSD>  (1) 
1.04732728

$$$$
