
     RDKit          3D

 40 43  0  0  0  0  0  0  0  0999 V2000
   43.2030   32.2820   39.4890 Cl  0  0  0  0  0  0  0  0  0  0  0  0
   42.0680   33.5420   39.9470 C   0  0  0  0  0  0  0  0  0  0  0  0
   42.4780   34.7310   40.5330 C   0  0  0  0  0  0  0  0  0  0  0  0
   41.5510   35.6750   40.8690 C   0  0  0  0  0  0  0  0  0  0  0  0
   40.2040   35.5230   40.6600 C   0  0  0  0  0  0  0  0  0  0  0  0
   39.7670   34.3440   40.0760 C   0  0  0  0  0  0  0  0  0  0  0  0
   38.0580   34.0500   39.7650 Cl  0  0  0  0  0  0  0  0  0  0  0  0
   40.7040   33.4020   39.7420 C   0  0  0  0  0  0  0  0  0  0  0  0
   40.0760   31.1820   40.1060 C   0  0  0  0  0  0  0  0  0  0  0  0
   40.2940   32.1300   39.1180 C   0  0  0  0  0  0  0  0  0  0  0  0
   40.1250   31.8160   37.7960 C   0  0  0  0  0  0  0  0  0  0  0  0
   39.7300   30.5360   37.4730 C   0  0  0  0  0  0  0  0  0  0  0  0
   39.5140   30.0450   36.2460 N   0  0  0  0  0  0  0  0  0  0  0  0
   39.1480   28.7530   36.4480 C   0  0  0  0  0  0  0  0  0  0  0  0
   39.1370   28.4480   37.7760 N   0  0  0  0  0  0  0  0  0  0  0  0
   39.5060   29.5750   38.4370 C   0  0  0  0  0  0  0  0  0  0  0  0
   39.6750   29.8860   39.7670 C   0  0  0  0  0  0  0  0  0  0  0  0
   43.8530   34.8700   40.7380 O   0  0  0  0  0  0  0  0  0  0  0  0
   44.4050   34.4020   41.9430 C   0  0  0  0  0  0  0  0  0  0  0  0
   44.0620   33.3210   42.5480 O   0  0  0  0  0  0  0  0  0  0  0  0
   45.4300   35.1100   42.6230 N   0  0  0  0  0  0  0  0  0  0  0  0
   45.7880   34.3830   43.8260 C   0  0  0  0  0  0  0  0  0  0  0  0
   45.1680   34.5640   45.0450 C   0  0  0  0  0  0  0  0  0  0  0  0
   45.6480   33.7780   46.0800 C   0  0  0  0  0  0  0  0  0  0  0  0
   46.6470   32.9240   45.8370 N   0  0  0  0  0  0  0  0  0  0  0  0
   47.2230   32.7840   44.6240 C   0  0  0  0  0  0  0  0  0  0  0  0
   46.7850   33.5310   43.5830 N   0  0  0  0  0  0  0  0  0  0  0  0
   44.1350   35.5050   45.1160 N   0  0  0  0  0  0  0  0  0  0  0  0
   41.9034   36.6082   41.3325 H   0  0  0  0  0  0  0  0  0  0  0  0
   39.4928   36.3117   40.9467 H   0  0  0  0  0  0  0  0  0  0  0  0
   40.2194   31.4510   41.1629 H   0  0  0  0  0  0  0  0  0  0  0  0
   40.3002   32.5668   37.0114 H   0  0  0  0  0  0  0  0  0  0  0  0
   39.6054   30.5388   35.3467 H   0  0  0  0  0  0  0  0  0  0  0  0
   38.8938   28.0455   35.6450 H   0  0  0  0  0  0  0  0  0  0  0  0
   39.4983   29.1308   40.5471 H   0  0  0  0  0  0  0  0  0  0  0  0
   45.8516   35.9969   42.3124 H   0  0  0  0  0  0  0  0  0  0  0  0
   45.2131   33.8557   47.0874 H   0  0  0  0  0  0  0  0  0  0  0  0
   48.0444   32.0663   44.4820 H   0  0  0  0  0  0  0  0  0  0  0  0
   43.6478   35.6685   46.0086 H   0  0  0  0  0  0  0  0  0  0  0  0
   43.8618   36.0342   44.2756 H   0  0  0  0  0  0  0  0  0  0  0  0
  1  2  1  0
  2  3  2  0
  3 18  1  0
  3  4  1  0
  5  4  2  0
  6  5  1  0
  7  6  1  0
  8  2  1  0
  8  6  2  0
 10  8  1  0
 10  9  2  0
 11 10  1  0
 12 11  2  0
 12 16  1  0
 13 14  1  0
 13 12  1  0
 14 15  2  0
 15 16  1  0
 16 17  2  0
 17  9  1  0
 18 19  1  0
 19 20  2  0
 19 21  1  0
 21 22  1  0
 22 23  2  0
 23 28  1  0
 23 24  1  0
 25 24  2  0
 26 25  1  0
 27 22  1  0
 27 26  2  0
  4 29  1  0
  5 30  1  0
  9 31  1  0
 11 32  1  0
 13 33  1  0
 14 34  1  0
 17 35  1  0
 21 36  1  0
 24 37  1  0
 26 38  1  0
 28 39  1  0
 28 40  1  0
M  ISO  8  29  14  30  14  31  14  32  14  33   9  34  14  35  14  37  14
M  ISO  1  38  14
M  END
>  <minimizedAffinity>  (1) 
-6.21647644

>  <minimizedRMSD>  (1) 
1.65613902

$$$$
