
     RDKit          3D

 39 41  0  0  1  0  0  0  0  0999 V2000
   43.4940   33.8340   38.5560 Cl  0  0  0  0  0  0  0  0  0  0  0  0
   42.2610   34.3240   39.6860 C   0  0  0  0  0  0  0  0  0  0  0  0
   42.5780   34.9720   40.8870 C   0  0  0  0  0  0  0  0  0  0  0  0
   41.5800   35.3320   41.7450 C   0  0  0  0  0  0  0  0  0  0  0  0
   40.2430   35.0960   41.5060 C   0  0  0  0  0  0  0  0  0  0  0  0
   39.9180   34.4560   40.3230 C   0  0  0  0  0  0  0  0  0  0  0  0
   38.2250   34.1190   39.9320 Cl  0  0  0  0  0  0  0  0  0  0  0  0
   40.9340   34.0850   39.4400 C   0  0  0  0  0  0  0  0  0  0  0  0
   39.0290   33.7490   37.8470 C   0  0  2  0  0  0  0  0  0  0  0  0
   40.4600   33.4170   38.2000 C   0  0  2  0  0  0  0  0  0  0  0  0
   40.5260   31.9320   38.2100 C   0  0  0  0  0  0  0  0  0  0  0  0
   39.2130   31.4640   38.2170 O   0  0  0  0  0  0  0  0  0  0  0  0
   38.4640   32.3880   37.5100 C   0  0  0  0  0  0  0  0  0  0  0  0
   38.9240   34.6610   36.7960 O   0  0  0  0  0  0  0  0  0  0  0  0
   43.9410   35.2010   41.1090 O   0  0  0  0  0  0  0  0  0  0  0  0
   44.5500   34.5650   42.1940 C   0  0  0  0  0  0  0  0  0  0  0  0
   44.3740   33.3390   42.5380 O   0  0  0  0  0  0  0  0  0  0  0  0
   45.4570   35.2630   43.0490 N   0  0  0  0  0  0  0  0  0  0  0  0
   45.9130   34.3410   44.0830 C   0  0  0  0  0  0  0  0  0  0  0  0
   45.4130   34.2980   45.3580 C   0  0  0  0  0  0  0  0  0  0  0  0
   45.9740   33.3500   46.2050 C   0  0  0  0  0  0  0  0  0  0  0  0
   46.9490   32.5570   45.7190 N   0  0  0  0  0  0  0  0  0  0  0  0
   47.4090   32.6320   44.4630 C   0  0  0  0  0  0  0  0  0  0  0  0
   46.8840   33.5490   43.6050 N   0  0  0  0  0  0  0  0  0  0  0  0
   44.3880   35.2110   45.6860 N   0  0  0  0  0  0  0  0  0  0  0  0
   41.8581   35.8394   42.6806 H   0  0  0  0  0  0  0  0  0  0  0  0
   39.4685   35.4030   42.2242 H   0  0  0  0  0  0  0  0  0  0  0  0
   38.4856   34.2579   38.6568 H   0  0  0  0  0  0  0  0  0  0  0  0
   41.1698   33.8179   37.4614 H   0  0  0  0  0  0  0  0  0  0  0  0
   41.0504   31.5715   37.3128 H   0  0  0  0  0  0  0  0  0  0  0  0
   41.0756   31.5702   39.0915 H   0  0  0  0  0  0  0  0  0  0  0  0
   37.4075   32.3304   37.8108 H   0  0  0  0  0  0  0  0  0  0  0  0
   38.5128   32.1945   36.4282 H   0  0  0  0  0  0  0  0  0  0  0  0
   38.8188   35.5750   37.1615 H   0  0  0  0  0  0  0  0  0  0  0  0
   45.7403   36.2485   42.9519 H   0  0  0  0  0  0  0  0  0  0  0  0
   45.6310   33.2495   47.2453 H   0  0  0  0  0  0  0  0  0  0  0  0
   48.2080   31.9550   44.1264 H   0  0  0  0  0  0  0  0  0  0  0  0
   43.9837   35.2129   46.6333 H   0  0  0  0  0  0  0  0  0  0  0  0
   44.0442   35.8755   44.9780 H   0  0  0  0  0  0  0  0  0  0  0  0
  1  2  1  0
  2  3  2  0
  3 15  1  0
  3  4  1  0
  5  4  2  0
  6  5  1  0
  7  6  1  0
  8  2  1  0
  8  6  2  0
  9 14  1  0
  9 10  1  0
 10 11  1  0
 10  8  1  0
 11 12  1  0
 13  9  1  0
 13 12  1  0
 15 16  1  0
 16 17  2  0
 16 18  1  0
 18 19  1  0
 19 20  2  0
 20 25  1  0
 20 21  1  0
 22 21  2  0
 23 22  1  0
 24 19  1  0
 24 23  2  0
  4 26  1  0
  5 27  1  0
  9 28  1  1
 10 29  1  6
 11 30  1  0
 11 31  1  0
 13 32  1  0
 13 33  1  0
 14 34  1  0
 18 35  1  0
 21 36  1  0
 23 37  1  0
 25 38  1  0
 25 39  1  0
M  ISO  8  26  14  27  14  28  13  29  13  30  13  31  13  32  13  33  13
M  ISO  3  34   3  36  14  37  14
M  END
>  <minimizedAffinity>  (1) 
-6.06250143

>  <minimizedRMSD>  (1) 
0.49673292

$$$$
