
     RDKit          3D

 28 29  0  0  0  0  0  0  0  0999 V2000
   44.3880   34.8720   42.1300 C   0  0  0  0  0  0  0  0  0  0  0  0
   44.2120   33.6420   42.4390 O   0  0  0  0  0  0  0  0  0  0  0  0
   45.3410   35.5100   42.9770 N   0  0  0  0  0  0  0  0  0  0  0  0
   45.7970   34.5600   43.9800 C   0  0  0  0  0  0  0  0  0  0  0  0
   45.3070   34.4540   45.2520 C   0  0  0  0  0  0  0  0  0  0  0  0
   45.8760   33.4830   46.0510 C   0  0  0  0  0  0  0  0  0  0  0  0
   46.8620   32.7170   45.5250 N   0  0  0  0  0  0  0  0  0  0  0  0
   47.3100   32.8540   44.2710 C   0  0  0  0  0  0  0  0  0  0  0  0
   46.7740   33.7980   43.4610 N   0  0  0  0  0  0  0  0  0  0  0  0
   44.2770   35.3360   45.6310 N   0  0  0  0  0  0  0  0  0  0  0  0
   43.7450   35.5550   41.0900 O   0  0  0  0  0  0  0  0  0  0  0  0
   43.6470   33.6180   38.8570 Cl  0  0  0  0  0  0  0  0  0  0  0  0
   42.2860   34.2930   39.7300 C   0  0  0  0  0  0  0  0  0  0  0  0
   42.4330   35.1980   40.7670 C   0  0  0  0  0  0  0  0  0  0  0  0
   41.3250   35.6910   41.4140 C   0  0  0  0  0  0  0  0  0  0  0  0
   40.0420   35.3270   41.0820 C   0  0  0  0  0  0  0  0  0  0  0  0
   39.8670   34.4140   40.0390 C   0  0  0  0  0  0  0  0  0  0  0  0
   38.2560   33.8920   39.5460 Cl  0  0  0  0  0  0  0  0  0  0  0  0
   40.9990   33.9410   39.4130 C   0  0  0  0  0  0  0  0  0  0  0  0
   40.7290   32.7690   38.0760 S   0  0  0  0  0  0  0  0  0  0  0  0
   45.6561   36.4869   42.8924 H   0  0  0  0  0  0  0  0  0  0  0  0
   45.5380   33.3350   47.0873 H   0  0  0  0  0  0  0  0  0  0  0  0
   48.1127   32.2005   43.8987 H   0  0  0  0  0  0  0  0  0  0  0  0
   43.8812   35.2878   46.5807 H   0  0  0  0  0  0  0  0  0  0  0  0
   43.9193   36.0294   44.9586 H   0  0  0  0  0  0  0  0  0  0  0  0
   41.4718   36.4091   42.2343 H   0  0  0  0  0  0  0  0  0  0  0  0
   39.1781   35.7423   41.6217 H   0  0  0  0  0  0  0  0  0  0  0  0
   40.4449   31.5356   38.6003 H   0  0  0  0  0  0  0  0  0  0  0  0
  1  2  2  0
  1  3  1  0
  3  4  1  0
  4  5  2  0
  5 10  1  0
  5  6  1  0
  7  6  2  0
  8  7  1  0
  9  4  1  0
  9  8  2  0
 11  1  1  0
 12 13  1  0
 13 14  2  0
 14 11  1  0
 14 15  1  0
 16 15  2  0
 17 16  1  0
 18 17  1  0
 19 13  1  0
 19 17  2  0
 20 19  1  0
  3 21  1  0
  6 22  1  0
  8 23  1  0
 10 24  1  0
 10 25  1  0
 15 26  1  0
 16 27  1  0
 20 28  1  0
M  ISO  5  22  14  23  14  26  14  27  14  28  11
M  END
>  <minimizedAffinity>  (1) 
-5.92590189

>  <minimizedRMSD>  (1) 
0.20002839

$$$$
