
     RDKit          3D

 34 36  0  0  0  0  0  0  0  0999 V2000
   43.2320   32.4610   39.3140 Cl  0  0  0  0  0  0  0  0  0  0  0  0
   42.0950   33.6270   39.9180 C   0  0  0  0  0  0  0  0  0  0  0  0
   42.5230   34.7750   40.5890 C   0  0  0  0  0  0  0  0  0  0  0  0
   41.5860   35.6870   41.0190 C   0  0  0  0  0  0  0  0  0  0  0  0
   40.2220   35.5240   40.8210 C   0  0  0  0  0  0  0  0  0  0  0  0
   39.7840   34.3890   40.1600 C   0  0  0  0  0  0  0  0  0  0  0  0
   38.0700   34.1580   39.8750 Cl  0  0  0  0  0  0  0  0  0  0  0  0
   40.7590   33.4830   39.7360 C   0  0  0  0  0  0  0  0  0  0  0  0
   40.1480   32.3120   39.0560 C   0  0  0  0  0  0  0  0  0  0  0  0
   39.8700   32.1110   37.7290 C   0  0  0  0  0  0  0  0  0  0  0  0
   39.2990   30.8870   37.4850 C   0  0  0  0  0  0  0  0  0  0  0  0
   39.2400   30.3450   38.7490 C   0  0  0  0  0  0  0  0  0  0  0  0
   39.7330   31.1930   39.5920 O   0  0  0  0  0  0  0  0  0  0  0  0
   43.8860   34.9140   40.7740 O   0  0  0  0  0  0  0  0  0  0  0  0
   44.4440   34.4100   41.9700 C   0  0  0  0  0  0  0  0  0  0  0  0
   44.1990   33.2570   42.4850 O   0  0  0  0  0  0  0  0  0  0  0  0
   45.3750   35.1840   42.7410 N   0  0  0  0  0  0  0  0  0  0  0  0
   45.7510   34.4170   43.9110 C   0  0  0  0  0  0  0  0  0  0  0  0
   45.1870   34.5470   45.1480 C   0  0  0  0  0  0  0  0  0  0  0  0
   45.6770   33.7250   46.1340 C   0  0  0  0  0  0  0  0  0  0  0  0
   46.6670   32.8570   45.8290 N   0  0  0  0  0  0  0  0  0  0  0  0
   47.1990   32.7580   44.5920 C   0  0  0  0  0  0  0  0  0  0  0  0
   46.7330   33.5590   43.5960 N   0  0  0  0  0  0  0  0  0  0  0  0
   44.1650   35.4980   45.2980 N   0  0  0  0  0  0  0  0  0  0  0  0
   41.9349   36.5881   41.5447 H   0  0  0  0  0  0  0  0  0  0  0  0
   39.5064   36.2781   41.1804 H   0  0  0  0  0  0  0  0  0  0  0  0
   40.0819   32.8514   36.9436 H   0  0  0  0  0  0  0  0  0  0  0  0
   38.9733   30.4523   36.5285 H   0  0  0  0  0  0  0  0  0  0  0  0
   38.8389   29.3523   39.0011 H   0  0  0  0  0  0  0  0  0  0  0  0
   45.7178   36.1256   42.5027 H   0  0  0  0  0  0  0  0  0  0  0  0
   45.2702   33.7726   47.1549 H   0  0  0  0  0  0  0  0  0  0  0  0
   48.0033   32.0350   44.3910 H   0  0  0  0  0  0  0  0  0  0  0  0
   43.7129   35.6280   46.2143 H   0  0  0  0  0  0  0  0  0  0  0  0
   43.8674   36.0657   44.4917 H   0  0  0  0  0  0  0  0  0  0  0  0
  1  2  1  0
  2  3  2  0
  3 14  1  0
  3  4  1  0
  5  4  2  0
  6  5  1  0
  7  6  1  0
  8  2  1  0
  8  6  2  0
  9 13  1  0
  9  8  1  0
 10  9  2  0
 11 10  1  0
 11 12  2  0
 12 13  1  0
 14 15  1  0
 15 16  2  0
 15 17  1  0
 17 18  1  0
 18 19  2  0
 19 24  1  0
 19 20  1  0
 21 20  2  0
 22 21  1  0
 23 18  1  0
 23 22  2  0
  4 25  1  0
  5 26  1  0
 10 27  1  0
 11 28  1  0
 12 29  1  0
 17 30  1  0
 20 31  1  0
 22 32  1  0
 24 33  1  0
 24 34  1  0
M  ISO  7  25  14  26  14  27  14  28  14  29  14  31  14  32  14
M  END
>  <minimizedAffinity>  (1) 
-5.91619778

>  <minimizedRMSD>  (1) 
1.0100565

$$$$
