
     RDKit          3D

 29 30  0  0  0  0  0  0  0  0999 V2000
   44.3290   34.9290   42.0160 C   0  0  0  0  0  0  0  0  0  0  0  0
   44.1130   33.7110   42.3510 O   0  0  0  0  0  0  0  0  0  0  0  0
   45.2900   35.5830   42.8470 N   0  0  0  0  0  0  0  0  0  0  0  0
   45.7250   34.6470   43.8640 C   0  0  0  0  0  0  0  0  0  0  0  0
   45.2180   34.5690   45.1350 C   0  0  0  0  0  0  0  0  0  0  0  0
   45.7700   33.6060   45.9620 C   0  0  0  0  0  0  0  0  0  0  0  0
   46.7550   32.8210   45.4650 N   0  0  0  0  0  0  0  0  0  0  0  0
   47.2270   32.9260   44.2100 C   0  0  0  0  0  0  0  0  0  0  0  0
   46.7070   33.8630   43.3710 N   0  0  0  0  0  0  0  0  0  0  0  0
   44.1970   35.4640   45.4820 N   0  0  0  0  0  0  0  0  0  0  0  0
   43.7070   35.5990   40.9470 O   0  0  0  0  0  0  0  0  0  0  0  0
   43.6970   33.6900   38.7070 Cl  0  0  0  0  0  0  0  0  0  0  0  0
   42.3000   34.3230   39.5380 C   0  0  0  0  0  0  0  0  0  0  0  0
   42.4040   35.2270   40.5930 C   0  0  0  0  0  0  0  0  0  0  0  0
   41.2810   35.7030   41.2240 C   0  0  0  0  0  0  0  0  0  0  0  0
   40.0040   35.3210   40.8570 C   0  0  0  0  0  0  0  0  0  0  0  0
   39.8650   34.4120   39.7980 C   0  0  0  0  0  0  0  0  0  0  0  0
   38.2820   33.8770   39.2700 Cl  0  0  0  0  0  0  0  0  0  0  0  0
   41.0180   33.9680   39.2030 C   0  0  0  0  0  0  0  0  0  0  0  0
   40.8560   33.0220   38.1030 C   0  0  0  0  0  0  0  0  0  0  0  0
   40.8780   31.7820   38.3670 O   0  0  0  0  0  0  0  0  0  0  0  0
   45.6175   36.5538   42.7412 H   0  0  0  0  0  0  0  0  0  0  0  0
   45.4175   33.4816   46.9965 H   0  0  0  0  0  0  0  0  0  0  0  0
   48.0292   32.2580   43.8634 H   0  0  0  0  0  0  0  0  0  0  0  0
   43.7888   35.4382   46.4273 H   0  0  0  0  0  0  0  0  0  0  0  0
   43.8547   36.1476   44.7917 H   0  0  0  0  0  0  0  0  0  0  0  0
   41.4022   36.4155   42.0532 H   0  0  0  0  0  0  0  0  0  0  0  0
   39.1221   35.7186   41.3806 H   0  0  0  0  0  0  0  0  0  0  0  0
   40.7183   33.3761   37.0707 H   0  0  0  0  0  0  0  0  0  0  0  0
  1  2  2  0
  1  3  1  0
  3  4  1  0
  4  5  2  0
  5 10  1  0
  5  6  1  0
  7  6  2  0
  8  7  1  0
  9  4  1  0
  9  8  2  0
 11  1  1  0
 12 13  1  0
 13 14  2  0
 14 11  1  0
 14 15  1  0
 16 15  2  0
 17 16  1  0
 18 17  1  0
 19 13  1  0
 19 17  2  0
 20 21  2  0
 20 19  1  0
  3 22  1  0
  6 23  1  0
  8 24  1  0
 10 25  1  0
 10 26  1  0
 15 27  1  0
 16 28  1  0
 20 29  1  0
M  ISO  5  23  14  24  14  27  14  28  14  29   6
M  END
>  <minimizedAffinity>  (1) 
-5.88142347

>  <minimizedRMSD>  (1) 
0.357773453

$$$$
