
     RDKit          3D

 22 22  0  0  0  0  0  0  0  0999 V2000
   46.4570   32.8760   45.5510 C   0  0  0  0  0  0  0  0  0  0  0  0
   44.5030   35.8480   44.6000 C   0  0  0  0  0  0  0  0  0  0  0  0
   45.0360   36.1290   43.2980 C   0  0  0  0  0  0  0  0  0  0  0  0
   46.0310   35.2920   42.8120 C   0  0  0  0  0  0  0  0  0  0  0  0
   46.4480   34.2570   43.5870 N   0  0  0  0  0  0  0  0  0  0  0  0
   45.9110   34.0320   44.8170 C   0  0  0  0  0  0  0  0  0  0  0  0
   44.9560   34.8130   45.3150 N   0  0  0  0  0  0  0  0  0  0  0  0
   45.7740   32.8240   46.8920 C   0  0  0  0  0  0  0  0  0  0  0  0
   46.8010   32.5370   47.8130 O   0  0  0  0  0  0  0  0  0  0  0  0
   45.3070   31.5370   49.7110 O   0  0  0  0  0  0  0  0  0  0  0  0
   46.4510   31.2040   48.7530 P   0  0  0  0  0  0  0  0  0  0  0  0
   45.9510   29.9420   47.7390 O   0  0  0  0  0  0  0  0  0  0  0  0
   47.7190   30.6620   49.6980 O   0  0  0  0  0  0  0  0  0  0  0  0
   47.5419   32.9965   45.6871 H   0  0  0  0  0  0  0  0  0  0  0  0
   46.2812   31.9453   44.9917 H   0  0  0  0  0  0  0  0  0  0  0  0
   43.7129   36.4912   45.0147 H   0  0  0  0  0  0  0  0  0  0  0  0
   44.6685   36.9793   42.7047 H   0  0  0  0  0  0  0  0  0  0  0  0
   46.4730   35.4633   41.8194 H   0  0  0  0  0  0  0  0  0  0  0  0
   45.3050   33.7914   47.1249 H   0  0  0  0  0  0  0  0  0  0  0  0
   44.9725   32.0711   46.9187 H   0  0  0  0  0  0  0  0  0  0  0  0
   45.6479   29.1769   48.2893 H   0  0  0  0  0  0  0  0  0  0  0  0
   47.4841   30.7624   50.6545 H   0  0  0  0  0  0  0  0  0  0  0  0
  1  8  1  0
  2  7  2  0
  3  2  1  0
  4  3  2  0
  4  5  1  0
  5  6  2  0
  6  7  1  0
  6  1  1  0
  8  9  1  0
  9 11  1  0
 11 13  1  0
 11 10  2  0
 12 11  1  0
  1 14  1  0
  1 15  1  0
  2 16  1  0
  3 17  1  0
  4 18  1  0
  8 19  1  0
  8 20  1  0
 12 21  1  0
 13 22  1  0
M  ISO  8  14   8  15   8  16  14  17  14  18  14  19   8  20   8  21   3
M  ISO  1  22   3
M  END
>  <minimizedAffinity>  (1) 
-4.45019865

>  <minimizedRMSD>  (1) 
1.37565684

$$$$
