
     RDKit          3D

 37 39  0  0  0  0  0  0  0  0999 V2000
   42.8960   32.0630   39.4010 Cl  0  0  0  0  0  0  0  0  0  0  0  0
   41.9460   33.4690   39.8550 C   0  0  0  0  0  0  0  0  0  0  0  0
   42.5220   34.6270   40.3880 C   0  0  0  0  0  0  0  0  0  0  0  0
   41.7300   35.6890   40.7220 C   0  0  0  0  0  0  0  0  0  0  0  0
   40.3580   35.6930   40.5640 C   0  0  0  0  0  0  0  0  0  0  0  0
   39.7580   34.5390   40.0300 C   0  0  0  0  0  0  0  0  0  0  0  0
   38.0210   34.4560   39.7950 Cl  0  0  0  0  0  0  0  0  0  0  0  0
   40.5770   33.4880   39.7040 C   0  0  0  0  0  0  0  0  0  0  0  0
   39.7240   31.4950   41.3580 F   0  0  0  0  0  0  0  0  0  0  0  0
   39.5440   31.2890   40.0110 C   0  0  0  0  0  0  0  0  0  0  0  0
   39.9660   32.2820   39.1480 C   0  0  0  0  0  0  0  0  0  0  0  0
   39.7610   32.0260   37.7890 C   0  0  0  0  0  0  0  0  0  0  0  0
   39.1700   30.8430   37.3930 C   0  0  0  0  0  0  0  0  0  0  0  0
   38.7670   29.8810   38.3250 C   0  0  0  0  0  0  0  0  0  0  0  0
   38.9510   30.0930   39.6850 C   0  0  0  0  0  0  0  0  0  0  0  0
   43.9090   34.6020   40.5390 O   0  0  0  0  0  0  0  0  0  0  0  0
   44.4290   34.2010   41.7740 C   0  0  0  0  0  0  0  0  0  0  0  0
   44.0710   33.1800   42.4540 O   0  0  0  0  0  0  0  0  0  0  0  0
   45.4680   34.9450   42.4190 N   0  0  0  0  0  0  0  0  0  0  0  0
   45.7820   34.3200   43.6860 C   0  0  0  0  0  0  0  0  0  0  0  0
   45.1410   34.5730   44.8690 C   0  0  0  0  0  0  0  0  0  0  0  0
   45.5740   33.8810   45.9820 C   0  0  0  0  0  0  0  0  0  0  0  0
   46.5990   33.0070   45.8150 N   0  0  0  0  0  0  0  0  0  0  0  0
   47.2030   32.7850   44.6330 C   0  0  0  0  0  0  0  0  0  0  0  0
   46.7900   33.4570   43.5300 N   0  0  0  0  0  0  0  0  0  0  0  0
   44.0900   35.5200   44.8600 N   0  0  0  0  0  0  0  0  0  0  0  0
   42.2098   36.5871   41.1382 H   0  0  0  0  0  0  0  0  0  0  0  0
   39.7554   36.5689   40.8462 H   0  0  0  0  0  0  0  0  0  0  0  0
   40.0702   32.7662   37.0363 H   0  0  0  0  0  0  0  0  0  0  0  0
   39.0125   30.6527   36.3211 H   0  0  0  0  0  0  0  0  0  0  0  0
   38.2999   28.9477   37.9774 H   0  0  0  0  0  0  0  0  0  0  0  0
   38.6450   29.3585   40.4445 H   0  0  0  0  0  0  0  0  0  0  0  0
   45.9199   35.7901   42.0417 H   0  0  0  0  0  0  0  0  0  0  0  0
   45.1065   34.0320   46.9662 H   0  0  0  0  0  0  0  0  0  0  0  0
   48.0284   32.0613   44.5619 H   0  0  0  0  0  0  0  0  0  0  0  0
   43.5844   35.7365   45.7309 H   0  0  0  0  0  0  0  0  0  0  0  0
   43.8304   35.9929   43.9826 H   0  0  0  0  0  0  0  0  0  0  0  0
  1  2  1  0
  2  3  2  0
  3 16  1  0
  3  4  1  0
  5  4  2  0
  6  5  1  0
  7  6  1  0
  8  2  1  0
  8  6  2  0
 10  9  1  0
 11  8  1  0
 11 10  2  0
 12 11  1  0
 13 12  2  0
 13 14  1  0
 14 15  2  0
 15 10  1  0
 16 17  1  0
 17 19  1  0
 17 18  2  0
 19 20  1  0
 20 21  2  0
 21 22  1  0
 23 22  2  0
 24 23  1  0
 25 20  1  0
 25 24  2  0
 26 21  1  0
  4 27  1  0
  5 28  1  0
 12 29  1  0
 13 30  1  0
 14 31  1  0
 15 32  1  0
 19 33  1  0
 22 34  1  0
 24 35  1  0
 26 36  1  0
 26 37  1  0
M  ISO  8  27  14  28  14  29  14  30  14  31  14  32  14  34  14  35  14
M  END
>  <minimizedAffinity>  (1) 
-6.0539999

>  <minimizedRMSD>  (1) 
1.48328698

$$$$
