
     RDKit          3D

 44 47  0  0  0  0  0  0  0  0999 V2000
   42.9750   32.3110   39.3840 Cl  0  0  0  0  0  0  0  0  0  0  0  0
   41.9120   33.5990   39.8990 C   0  0  0  0  0  0  0  0  0  0  0  0
   42.3690   34.7800   40.4910 C   0  0  0  0  0  0  0  0  0  0  0  0
   41.4980   35.7560   40.8770 C   0  0  0  0  0  0  0  0  0  0  0  0
   40.1270   35.6480   40.7120 C   0  0  0  0  0  0  0  0  0  0  0  0
   39.6280   34.4710   40.1180 C   0  0  0  0  0  0  0  0  0  0  0  0
   37.9080   34.2460   39.8690 Cl  0  0  0  0  0  0  0  0  0  0  0  0
   40.5470   33.5090   39.7430 C   0  0  0  0  0  0  0  0  0  0  0  0
   39.8930   31.3720   41.3030 F   0  0  0  0  0  0  0  0  0  0  0  0
   39.7200   31.2170   39.9440 C   0  0  0  0  0  0  0  0  0  0  0  0
   40.0420   32.2810   39.1260 C   0  0  0  0  0  0  0  0  0  0  0  0
   39.8520   32.0830   37.7550 C   0  0  0  0  0  0  0  0  0  0  0  0
   39.3660   30.8660   37.3050 C   0  0  0  0  0  0  0  0  0  0  0  0
   39.0580   29.8250   38.1930 C   0  0  0  0  0  0  0  0  0  0  0  0
   39.2360   29.9930   39.5570 C   0  0  0  0  0  0  0  0  0  0  0  0
   43.7610   34.8820   40.6560 O   0  0  0  0  0  0  0  0  0  0  0  0
   44.3190   34.3340   41.8130 C   0  0  0  0  0  0  0  0  0  0  0  0
   44.0570   33.1890   42.3380 O   0  0  0  0  0  0  0  0  0  0  0  0
   45.2980   35.0580   42.5580 N   0  0  0  0  0  0  0  0  0  0  0  0
   45.6650   34.2940   43.7330 C   0  0  0  0  0  0  0  0  0  0  0  0
   45.2120   34.4920   44.9990 C   0  0  0  0  0  0  0  0  0  0  0  0
   45.6900   33.6500   45.9760 C   0  0  0  0  0  0  0  0  0  0  0  0
   46.5730   32.6880   45.6080 N   0  0  0  0  0  0  0  0  0  0  0  0
   46.9970   32.5230   44.3460 C   0  0  0  0  0  0  0  0  0  0  0  0
   46.5420   33.3370   43.3750 N   0  0  0  0  0  0  0  0  0  0  0  0
   44.2940   35.5430   45.1960 N   0  0  0  0  0  0  0  0  0  0  0  0
   47.9770   31.4180   44.0780 C   0  0  0  0  0  0  0  0  0  0  0  0
   47.9220   30.6430   42.8420 C   0  0  0  0  0  0  0  0  0  0  0  0
   48.9350   31.7360   42.9400 C   0  0  0  0  0  0  0  0  0  0  0  0
   41.9019   36.6687   41.3395 H   0  0  0  0  0  0  0  0  0  0  0  0
   39.4504   36.4535   41.0336 H   0  0  0  0  0  0  0  0  0  0  0  0
   40.0861   32.8858   37.0404 H   0  0  0  0  0  0  0  0  0  0  0  0
   39.2182   30.7127   36.2258 H   0  0  0  0  0  0  0  0  0  0  0  0
   38.6732   28.8704   37.8048 H   0  0  0  0  0  0  0  0  0  0  0  0
   39.0046   29.1980   40.2811 H   0  0  0  0  0  0  0  0  0  0  0  0
   45.6827   35.9782   42.3008 H   0  0  0  0  0  0  0  0  0  0  0  0
   45.3666   33.7533   47.0223 H   0  0  0  0  0  0  0  0  0  0  0  0
   43.9222   35.7323   46.1377 H   0  0  0  0  0  0  0  0  0  0  0  0
   43.9949   36.1219   44.3983 H   0  0  0  0  0  0  0  0  0  0  0  0
   48.0223   31.1094   45.1329 H   0  0  0  0  0  0  0  0  0  0  0  0
   47.0619   30.7569   42.1658 H   0  0  0  0  0  0  0  0  0  0  0  0
   47.9738   29.5694   42.6082 H   0  0  0  0  0  0  0  0  0  0  0  0
   50.0046   31.4958   43.0306 H   0  0  0  0  0  0  0  0  0  0  0  0
   49.1934   32.6285   42.3512 H   0  0  0  0  0  0  0  0  0  0  0  0
  1  2  1  0
  2  3  2  0
  3 16  1  0
  3  4  1  0
  5  4  2  0
  6  5  1  0
  7  6  1  0
  8  2  1  0
  8  6  2  0
 10  9  1  0
 11  8  1  0
 11 10  2  0
 12 11  1  0
 13 12  2  0
 13 14  1  0
 14 15  2  0
 15 10  1  0
 16 17  1  0
 17 18  2  0
 17 19  1  0
 19 20  1  0
 20 21  2  0
 21 26  1  0
 21 22  1  0
 23 22  2  0
 24 23  1  0
 25 20  1  0
 25 24  2  0
 27 24  1  0
 28 29  1  0
 28 27  1  0
 29 27  1  0
  4 30  1  0
  5 31  1  0
 12 32  1  0
 13 33  1  0
 14 34  1  0
 15 35  1  0
 19 36  1  0
 22 37  1  0
 26 38  1  0
 26 39  1  0
 27 40  1  0
 28 41  1  0
 28 42  1  0
 29 43  1  0
 29 44  1  0
M  ISO  8  30  14  31  14  32  14  33  14  34  14  35  14  37  14  40  13
M  ISO  4  41  13  42  13  43  13  44  13
M  END
>  <minimizedAffinity>  (1) 
-6.09990978

>  <minimizedRMSD>  (1) 
0.342652649

$$$$
