
     RDKit          3D

 40 42  0  0  0  0  0  0  0  0999 V2000
   43.0110   32.1360   39.4850 Cl  0  0  0  0  0  0  0  0  0  0  0  0
   41.9920   33.4710   39.9930 C   0  0  0  0  0  0  0  0  0  0  0  0
   42.4940   34.6190   40.5990 C   0  0  0  0  0  0  0  0  0  0  0  0
   41.6570   35.6250   40.9720 C   0  0  0  0  0  0  0  0  0  0  0  0
   40.2920   35.5840   40.7860 C   0  0  0  0  0  0  0  0  0  0  0  0
   39.7570   34.4290   40.1730 C   0  0  0  0  0  0  0  0  0  0  0  0
   38.0290   34.2830   39.8910 Cl  0  0  0  0  0  0  0  0  0  0  0  0
   40.6350   33.4270   39.8050 C   0  0  0  0  0  0  0  0  0  0  0  0
   39.8640   31.3120   41.3330 F   0  0  0  0  0  0  0  0  0  0  0  0
   39.7040   31.1720   39.9770 C   0  0  0  0  0  0  0  0  0  0  0  0
   40.0890   32.2350   39.1730 C   0  0  0  0  0  0  0  0  0  0  0  0
   39.9120   32.0590   37.7930 C   0  0  0  0  0  0  0  0  0  0  0  0
   39.3780   30.8670   37.3260 C   0  0  0  0  0  0  0  0  0  0  0  0
   39.0110   29.8310   38.2000 C   0  0  0  0  0  0  0  0  0  0  0  0
   39.1730   29.9750   39.5770 C   0  0  0  0  0  0  0  0  0  0  0  0
   43.8860   34.6600   40.7890 O   0  0  0  0  0  0  0  0  0  0  0  0
   44.3970   34.1540   41.9890 C   0  0  0  0  0  0  0  0  0  0  0  0
   44.0720   33.0490   42.5640 O   0  0  0  0  0  0  0  0  0  0  0  0
   45.3860   34.8780   42.7170 N   0  0  0  0  0  0  0  0  0  0  0  0
   45.6880   34.1590   43.9440 C   0  0  0  0  0  0  0  0  0  0  0  0
   45.2040   34.4340   45.1840 C   0  0  0  0  0  0  0  0  0  0  0  0
   45.6180   33.6270   46.2150 C   0  0  0  0  0  0  0  0  0  0  0  0
   46.4790   32.6140   45.9180 N   0  0  0  0  0  0  0  0  0  0  0  0
   46.9340   32.3740   44.6830 C   0  0  0  0  0  0  0  0  0  0  0  0
   46.5380   33.1560   43.6600 N   0  0  0  0  0  0  0  0  0  0  0  0
   44.3200   35.5250   45.3020 N   0  0  0  0  0  0  0  0  0  0  0  0
   47.8770   31.2250   44.5040 C   0  0  0  0  0  0  0  0  0  0  0  0
   42.0923   36.5169   41.4464 H   0  0  0  0  0  0  0  0  0  0  0  0
   39.6457   36.4162   41.1018 H   0  0  0  0  0  0  0  0  0  0  0  0
   40.1932   32.8565   37.0895 H   0  0  0  0  0  0  0  0  0  0  0  0
   39.2385   30.7298   36.2435 H   0  0  0  0  0  0  0  0  0  0  0  0
   38.5922   28.8981   37.7947 H   0  0  0  0  0  0  0  0  0  0  0  0
   38.8947   29.1849   40.2900 H   0  0  0  0  0  0  0  0  0  0  0  0
   45.8165   35.7659   42.4218 H   0  0  0  0  0  0  0  0  0  0  0  0
   45.2668   33.7927   47.2442 H   0  0  0  0  0  0  0  0  0  0  0  0
   43.9270   35.7723   46.2214 H   0  0  0  0  0  0  0  0  0  0  0  0
   44.0669   36.0752   44.4689 H   0  0  0  0  0  0  0  0  0  0  0  0
   48.1866   30.8478   45.4898 H   0  0  0  0  0  0  0  0  0  0  0  0
   47.3744   30.4217   43.9453 H   0  0  0  0  0  0  0  0  0  0  0  0
   48.7629   31.5613   43.9453 H   0  0  0  0  0  0  0  0  0  0  0  0
  1  2  1  0
  2  3  2  0
  3 16  1  0
  3  4  1  0
  5  4  2  0
  6  5  1  0
  7  6  1  0
  8  2  1  0
  8  6  2  0
 10  9  1  0
 11  8  1  0
 11 10  2  0
 12 11  1  0
 13 12  2  0
 13 14  1  0
 14 15  2  0
 15 10  1  0
 16 17  1  0
 17 18  2  0
 17 19  1  0
 19 20  1  0
 20 21  2  0
 21 26  1  0
 21 22  1  0
 23 22  2  0
 24 23  1  0
 25 20  1  0
 25 24  2  0
 27 24  1  0
  4 28  1  0
  5 29  1  0
 12 30  1  0
 13 31  1  0
 14 32  1  0
 15 33  1  0
 19 34  1  0
 22 35  1  0
 26 36  1  0
 26 37  1  0
 27 38  1  0
 27 39  1  0
 27 40  1  0
M  ISO  8  28  14  29  14  30  14  31  14  32  14  33  14  35  14  38   8
M  ISO  2  39   8  40   8
M  END
>  <minimizedAffinity>  (1) 
-6.0945406

>  <minimizedRMSD>  (1) 
0.307953715

$$$$
