
     RDKit          3D

 31 32  0  0  0  0  0  0  0  0999 V2000
   44.7640   34.9890   45.1440 C   0  0  0  0  0  0  0  0  0  0  0  0
   45.0050   34.4110   43.9000 C   0  0  0  0  0  0  0  0  0  0  0  0
   45.6150   33.1600   43.8820 C   0  0  0  0  0  0  0  0  0  0  0  0
   45.9450   32.5700   45.0820 N   0  0  0  0  0  0  0  0  0  0  0  0
   45.6880   33.1740   46.2530 C   0  0  0  0  0  0  0  0  0  0  0  0
   45.1030   34.3740   46.2780 N   0  0  0  0  0  0  0  0  0  0  0  0
   46.0550   32.5090   47.4610 N   0  0  0  0  0  0  0  0  0  0  0  0
   45.0080   31.8970   48.2620 C   0  0  0  0  0  0  0  0  0  0  0  0
   45.5050   30.5670   48.7360 C   0  0  0  0  0  0  0  0  0  0  0  0
   46.6870   30.8300   49.5600 N   0  0  0  0  0  0  0  0  0  0  0  0
   47.7570   31.2020   48.6570 C   0  0  0  0  0  0  0  0  0  0  0  0
   47.4350   32.4470   47.8740 C   0  0  0  0  0  0  0  0  0  0  0  0
   44.6520   35.0460   42.6460 C   0  0  0  0  0  0  0  0  0  0  0  0
   43.5940   34.7540   41.8960 C   0  0  0  0  0  0  0  0  0  0  0  0
   43.3310   35.4800   40.6160 C   0  0  0  0  0  0  0  0  0  0  0  0
   44.2824   35.9768   45.1925 H   0  0  0  0  0  0  0  0  0  0  0  0
   45.8290   32.6532   42.9294 H   0  0  0  0  0  0  0  0  0  0  0  0
   44.7758   32.5379   49.1253 H   0  0  0  0  0  0  0  0  0  0  0  0
   44.0935   31.7718   47.6637 H   0  0  0  0  0  0  0  0  0  0  0  0
   44.7306   30.0636   49.3333 H   0  0  0  0  0  0  0  0  0  0  0  0
   45.7512   29.9109   47.8881 H   0  0  0  0  0  0  0  0  0  0  0  0
   46.4958   31.5990   50.2180 H   0  0  0  0  0  0  0  0  0  0  0  0
   48.6702   31.3793   49.2441 H   0  0  0  0  0  0  0  0  0  0  0  0
   47.8947   30.3791   47.9402 H   0  0  0  0  0  0  0  0  0  0  0  0
   48.0712   32.4718   46.9770 H   0  0  0  0  0  0  0  0  0  0  0  0
   47.6215   33.3083   48.5323 H   0  0  0  0  0  0  0  0  0  0  0  0
   45.3195   35.8410   42.2821 H   0  0  0  0  0  0  0  0  0  0  0  0
   42.9006   33.9651   42.2227 H   0  0  0  0  0  0  0  0  0  0  0  0
   42.9640   36.4930   40.8377 H   0  0  0  0  0  0  0  0  0  0  0  0
   44.2622   35.5465   40.0342 H   0  0  0  0  0  0  0  0  0  0  0  0
   42.5733   34.9347   40.0342 H   0  0  0  0  0  0  0  0  0  0  0  0
  1  6  2  0
  2  1  1  0
  3  2  2  0
  3  4  1  0
  4  5  2  0
  5  6  1  0
  5  7  1  0
  7 12  1  0
  7  8  1  0
  8  9  1  0
  9 10  1  0
 11 10  1  0
 12 11  1  0
 13  2  1  0
 14 13  2  0
 15 14  1  0
  1 16  1  0
  3 17  1  0
  8 18  1  0
  8 19  1  0
  9 20  1  0
  9 21  1  0
 10 22  1  0
 11 23  1  0
 11 24  1  0
 12 25  1  0
 12 26  1  0
 13 27  1  0
 14 28  1  0
 15 29  1  0
 15 30  1  0
 15 31  1  0
M  ISO  8  16  14  17  14  18  13  19  13  20  13  21  13  22   5  23  13
M  ISO  6  24  13  25  13  26  13  29   8  30   8  31   8
M  END
>  <minimizedAffinity>  (1) 
-5.05877304

>  <minimizedRMSD>  (1) 
1.38162434

$$$$
