
     RDKit          3D

 29 30  0  0  1  0  0  0  0  0999 V2000
   44.4410   35.7800   43.4390 C   0  0  0  0  0  0  0  0  0  0  0  0
   44.1510   34.9330   42.3730 C   0  0  0  0  0  0  0  0  0  0  0  0
   44.5190   33.5960   42.4950 C   0  0  0  0  0  0  0  0  0  0  0  0
   45.1350   33.1740   43.6290 N   0  0  0  0  0  0  0  0  0  0  0  0
   45.3970   34.0370   44.6460 C   0  0  0  0  0  0  0  0  0  0  0  0
   45.0510   35.3310   44.5500 N   0  0  0  0  0  0  0  0  0  0  0  0
   45.1470   33.0970   46.9480 C   0  0  1  0  0  0  0  0  0  0  0  0
   46.0610   33.6720   45.9150 C   0  0  1  0  0  0  0  0  0  0  0  0
   46.9290   32.4500   45.6160 C   0  0  0  0  0  0  0  0  0  0  0  0
   47.1030   31.8030   46.8200 O   0  0  0  0  0  0  0  0  0  0  0  0
   45.9780   32.0200   47.5920 C   0  0  0  0  0  0  0  0  0  0  0  0
   44.6790   34.0210   47.8670 O   0  0  0  0  0  0  0  0  0  0  0  0
   43.4940   35.3990   41.1690 C   0  0  0  0  0  0  0  0  0  0  0  0
   42.8960   34.6310   40.2720 C   0  0  0  0  0  0  0  0  0  0  0  0
   42.2390   35.2210   39.0490 C   0  0  0  0  0  0  0  0  0  0  0  0
   44.1644   36.8425   43.3708 H   0  0  0  0  0  0  0  0  0  0  0  0
   44.3124   32.8873   41.6795 H   0  0  0  0  0  0  0  0  0  0  0  0
   44.2177   32.7183   46.4975 H   0  0  0  0  0  0  0  0  0  0  0  0
   46.5454   34.5930   46.2716 H   0  0  0  0  0  0  0  0  0  0  0  0
   46.4234   31.7890   44.8966 H   0  0  0  0  0  0  0  0  0  0  0  0
   47.8927   32.7397   45.1717 H   0  0  0  0  0  0  0  0  0  0  0  0
   46.2782   32.3386   48.6011 H   0  0  0  0  0  0  0  0  0  0  0  0
   45.3925   31.0919   47.6678 H   0  0  0  0  0  0  0  0  0  0  0  0
   44.8474   33.6886   48.7842 H   0  0  0  0  0  0  0  0  0  0  0  0
   43.4919   36.4834   40.9845 H   0  0  0  0  0  0  0  0  0  0  0  0
   42.8778   33.5413   40.4213 H   0  0  0  0  0  0  0  0  0  0  0  0
   41.4537   35.9262   39.3588 H   0  0  0  0  0  0  0  0  0  0  0  0
   42.9922   35.7518   38.4482 H   0  0  0  0  0  0  0  0  0  0  0  0
   41.7920   34.4153   38.4482 H   0  0  0  0  0  0  0  0  0  0  0  0
  1  6  2  0
  2  3  2  0
  2  1  1  0
  3  4  1  0
  4  5  2  0
  6  5  1  0
  7 11  1  0
  7 12  1  0
  8  5  1  0
  8  7  1  0
  9  8  1  0
  9 10  1  0
 10 11  1  0
 13  2  1  0
 14 13  2  0
 15 14  1  0
  1 16  1  0
  3 17  1  0
  7 18  1  6
  8 19  1  1
  9 20  1  0
  9 21  1  0
 11 22  1  0
 11 23  1  0
 12 24  1  0
 13 25  1  0
 14 26  1  0
 15 27  1  0
 15 28  1  0
 15 29  1  0
M  ISO  8  16  14  17  14  18  13  19  13  20  13  21  13  22  13  23  13
M  ISO  4  24   3  27   8  28   8  29   8
M  END
>  <minimizedAffinity>  (1) 
-4.84551907

>  <minimizedRMSD>  (1) 
1.12276328

$$$$
