
     RDKit          3D

 32 33  0  0  0  0  0  0  0  0999 V2000
   41.8930   35.2900   40.0120 C   0  0  0  0  0  0  0  0  0  0  0  0
   41.1200   34.1280   40.1320 C   0  0  0  0  0  0  0  0  0  0  0  0
   41.6260   33.1060   40.9250 C   0  0  0  0  0  0  0  0  0  0  0  0
   42.8350   33.2930   41.5350 N   0  0  0  0  0  0  0  0  0  0  0  0
   43.5430   34.4230   41.3930 C   0  0  0  0  0  0  0  0  0  0  0  0
   43.0690   35.4080   40.6370 N   0  0  0  0  0  0  0  0  0  0  0  0
   44.7950   34.5500   42.0570 N   0  0  0  0  0  0  0  0  0  0  0  0
   44.8770   34.7890   43.4790 C   0  0  0  0  0  0  0  0  0  0  0  0
   46.0390   34.1440   44.1560 C   0  0  0  0  0  0  0  0  0  0  0  0
   47.3110   34.1280   43.3740 C   0  0  0  0  0  0  0  0  0  0  0  0
   47.2080   34.9240   42.1090 C   0  0  0  0  0  0  0  0  0  0  0  0
   46.0280   34.4370   41.2810 C   0  0  0  0  0  0  0  0  0  0  0  0
   39.8360   33.9780   39.4600 C   0  0  0  0  0  0  0  0  0  0  0  0
   39.6800   33.8110   38.1520 C   0  0  0  0  0  0  0  0  0  0  0  0
   38.3320   33.6630   37.5270 C   0  0  0  0  0  0  0  0  0  0  0  0
   41.5256   36.1210   39.3919 H   0  0  0  0  0  0  0  0  0  0  0  0
   41.0670   32.1682   41.0590 H   0  0  0  0  0  0  0  0  0  0  0  0
   44.9468   35.8749   43.6399 H   0  0  0  0  0  0  0  0  0  0  0  0
   43.9742   34.3418   43.9206 H   0  0  0  0  0  0  0  0  0  0  0  0
   46.2259   34.6838   45.0961 H   0  0  0  0  0  0  0  0  0  0  0  0
   45.7586   33.0899   44.2981 H   0  0  0  0  0  0  0  0  0  0  0  0
   48.1139   34.5521   43.9949 H   0  0  0  0  0  0  0  0  0  0  0  0
   47.5255   33.0846   43.0997 H   0  0  0  0  0  0  0  0  0  0  0  0
   47.0647   35.9859   42.3577 H   0  0  0  0  0  0  0  0  0  0  0  0
   48.1331   34.7980   41.5274 H   0  0  0  0  0  0  0  0  0  0  0  0
   46.1879   33.3852   41.0016 H   0  0  0  0  0  0  0  0  0  0  0  0
   45.9429   35.0540   40.3743 H   0  0  0  0  0  0  0  0  0  0  0  0
   38.9291   34.0051   40.0820 H   0  0  0  0  0  0  0  0  0  0  0  0
   40.5717   33.7807   37.5087 H   0  0  0  0  0  0  0  0  0  0  0  0
   37.5695   33.5793   38.3154 H   0  0  0  0  0  0  0  0  0  0  0  0
   38.1187   34.5431   36.9026 H   0  0  0  0  0  0  0  0  0  0  0  0
   38.3148   32.7576   36.9026 H   0  0  0  0  0  0  0  0  0  0  0  0
  1  2  2  0
  1  6  1  0
  2  3  1  0
  3  4  2  0
  5  4  1  0
  5  7  1  0
  6  5  2  0
  7  8  1  0
  8  9  1  0
 10  9  1  0
 11 10  1  0
 12  7  1  0
 12 11  1  0
 13  2  1  0
 14 13  2  0
 15 14  1  0
  1 16  1  0
  3 17  1  0
  8 18  1  0
  8 19  1  0
  9 20  1  0
  9 21  1  0
 10 22  1  0
 10 23  1  0
 11 24  1  0
 11 25  1  0
 12 26  1  0
 12 27  1  0
 13 28  1  0
 14 29  1  0
 15 30  1  0
 15 31  1  0
 15 32  1  0
M  ISO  8  16  14  17  14  18  13  19  13  20  13  21  13  22  13  23  13
M  ISO  7  24  13  25  13  26  13  27  13  30   8  31   8  32   8
M  END
>  <minimizedAffinity>  (1) 
-4.84190893

>  <minimizedRMSD>  (1) 
5.08830166

$$$$
