
     RDKit          3D

 33 34  0  0  1  0  0  0  0  0999 V2000
   44.4550   35.9270   42.4280 C   0  0  0  0  0  0  0  0  0  0  0  0
   43.9090   35.1020   41.4440 C   0  0  0  0  0  0  0  0  0  0  0  0
   44.5970   33.9570   41.0850 C   0  0  0  0  0  0  0  0  0  0  0  0
   45.7810   33.6860   41.7110 N   0  0  0  0  0  0  0  0  0  0  0  0
   46.2860   34.5090   42.6650 C   0  0  0  0  0  0  0  0  0  0  0  0
   45.6150   35.6050   43.0000 N   0  0  0  0  0  0  0  0  0  0  0  0
   48.7370   34.5610   42.4490 C   0  0  1  0  0  0  0  0  0  0  0  0
   47.5920   34.1460   43.3090 C   0  0  2  0  0  0  0  0  0  0  0  0
   47.5970   32.6910   43.7020 C   0  0  0  0  0  0  0  0  0  0  0  0
   48.6310   31.9870   43.1250 O   0  0  0  0  0  0  0  0  0  0  0  0
   48.6480   32.1410   41.7340 C   0  0  0  0  0  0  0  0  0  0  0  0
   48.9960   33.5600   41.3620 C   0  0  1  0  0  0  0  0  0  0  0  0
   48.4150   35.7770   41.8590 O   0  0  0  0  0  0  0  0  0  0  0  0
   48.2260   33.9390   40.2510 O   0  0  0  0  0  0  0  0  0  0  0  0
   42.6420   35.4050   40.7830 C   0  0  0  0  0  0  0  0  0  0  0  0
   41.4840   35.5950   41.3660 C   0  0  0  0  0  0  0  0  0  0  0  0
   40.2370   35.9040   40.5780 C   0  0  0  0  0  0  0  0  0  0  0  0
   43.9279   36.8435   42.7318 H   0  0  0  0  0  0  0  0  0  0  0  0
   44.2003   33.2805   40.3137 H   0  0  0  0  0  0  0  0  0  0  0  0
   49.6393   34.6378   43.0734 H   0  0  0  0  0  0  0  0  0  0  0  0
   47.7166   34.7065   44.2473 H   0  0  0  0  0  0  0  0  0  0  0  0
   47.6921   32.6224   44.7957 H   0  0  0  0  0  0  0  0  0  0  0  0
   46.6550   32.2481   43.3464 H   0  0  0  0  0  0  0  0  0  0  0  0
   49.3974   31.4603   41.3039 H   0  0  0  0  0  0  0  0  0  0  0  0
   47.6489   31.9053   41.3386 H   0  0  0  0  0  0  0  0  0  0  0  0
   50.0769   33.5645   41.1577 H   0  0  0  0  0  0  0  0  0  0  0  0
   48.2371   36.4490   42.5639 H   0  0  0  0  0  0  0  0  0  0  0  0
   47.3823   34.3543   40.5604 H   0  0  0  0  0  0  0  0  0  0  0  0
   42.6621   35.4813   39.6858 H   0  0  0  0  0  0  0  0  0  0  0  0
   41.4202   35.5270   42.4620 H   0  0  0  0  0  0  0  0  0  0  0  0
   39.4073   36.1096   41.2703 H   0  0  0  0  0  0  0  0  0  0  0  0
   40.4128   36.7857   39.9443 H   0  0  0  0  0  0  0  0  0  0  0  0
   39.9808   35.0422   39.9443 H   0  0  0  0  0  0  0  0  0  0  0  0
  1  6  2  0
  2  1  1  0
  3  2  2  0
  3  4  1  0
  4  5  2  0
  5  6  1  0
  7 13  1  0
  7  8  1  0
  8  5  1  0
  8  9  1  0
 10  9  1  0
 11 10  1  0
 12 14  1  0
 12 11  1  0
 12  7  1  0
 15 16  2  0
 15  2  1  0
 17 16  1  0
  1 18  1  0
  3 19  1  0
  7 20  1  1
  8 21  1  1
  9 22  1  0
  9 23  1  0
 11 24  1  0
 11 25  1  0
 12 26  1  6
 13 27  1  0
 14 28  1  0
 15 29  1  0
 16 30  1  0
 17 31  1  0
 17 32  1  0
 17 33  1  0
M  ISO  8  18  14  19  14  20  13  21  13  22  13  23  13  24  13  25  13
M  ISO  6  26  13  27   3  28   3  31   8  32   8  33   8
M  END
>  <minimizedAffinity>  (1) 
-4.79196167

>  <minimizedRMSD>  (1) 
3.76381302

$$$$
