
     RDKit          3D

 17 17  0  0  0  0  0  0  0  0999 V2000
   44.5340   35.5840   44.8290 C   0  0  0  0  0  0  0  0  0  0  0  0
   45.0990   35.6470   43.5330 C   0  0  0  0  0  0  0  0  0  0  0  0
   46.1490   34.7610   43.2430 C   0  0  0  0  0  0  0  0  0  0  0  0
   46.5760   33.8960   44.1890 N   0  0  0  0  0  0  0  0  0  0  0  0
   45.9950   33.8730   45.4310 C   0  0  0  0  0  0  0  0  0  0  0  0
   44.9960   34.7040   45.7310 N   0  0  0  0  0  0  0  0  0  0  0  0
   46.5520   32.8800   46.3810 C   0  0  0  0  0  0  0  0  0  0  0  0
   45.3810   32.4620   47.2690 C   0  0  0  0  0  0  0  0  0  0  0  0
   45.2650   33.4440   48.2800 O   0  0  0  0  0  0  0  0  0  0  0  0
   43.7103   36.2611   45.0990 H   0  0  0  0  0  0  0  0  0  0  0  0
   44.7302   36.3617   42.7826 H   0  0  0  0  0  0  0  0  0  0  0  0
   46.6219   34.7711   42.2499 H   0  0  0  0  0  0  0  0  0  0  0  0
   46.9519   32.0109   45.8380 H   0  0  0  0  0  0  0  0  0  0  0  0
   47.3810   33.2995   46.9700 H   0  0  0  0  0  0  0  0  0  0  0  0
   44.4547   32.4159   46.6776 H   0  0  0  0  0  0  0  0  0  0  0  0
   45.5507   31.4658   47.7035 H   0  0  0  0  0  0  0  0  0  0  0  0
   45.3162   33.0105   49.1686 H   0  0  0  0  0  0  0  0  0  0  0  0
  1  6  2  0
  2  1  1  0
  3  2  2  0
  3  4  1  0
  4  5  2  0
  5  6  1  0
  5  7  1  0
  7  8  1  0
  8  9  1  0
  1 10  1  0
  2 11  1  0
  3 12  1  0
  7 13  1  0
  7 14  1  0
  8 15  1  0
  8 16  1  0
  9 17  1  0
M  ISO  8  10  14  11  14  12  14  13   8  14   8  15   8  16   8  17   3
M  END
>  <minimizedAffinity>  (1) 
-3.52962804

>  <minimizedRMSD>  (1) 
0.330084383

$$$$
