
     RDKit          3D

 18 18  0  0  0  0  0  0  0  0999 V2000
   44.5500   35.5500   45.0840 C   0  0  0  0  0  0  0  0  0  0  0  0
   45.1280   35.6370   43.7920 C   0  0  0  0  0  0  0  0  0  0  0  0
   46.0720   34.6640   43.4490 C   0  0  0  0  0  0  0  0  0  0  0  0
   46.3820   33.7080   44.3480 N   0  0  0  0  0  0  0  0  0  0  0  0
   45.8030   33.6640   45.5750 C   0  0  0  0  0  0  0  0  0  0  0  0
   44.8950   34.5740   45.9420 N   0  0  0  0  0  0  0  0  0  0  0  0
   46.2340   32.5630   46.4590 C   0  0  0  0  0  0  0  0  0  0  0  0
   45.6810   32.8590   47.8450 C   0  0  0  0  0  0  0  0  0  0  0  0
   44.4520   32.1360   48.0780 N   0  0  0  0  0  0  0  0  0  0  0  0
   43.8033   36.2971   45.3909 H   0  0  0  0  0  0  0  0  0  0  0  0
   44.8460   36.4354   43.0899 H   0  0  0  0  0  0  0  0  0  0  0  0
   46.5545   34.6783   42.4606 H   0  0  0  0  0  0  0  0  0  0  0  0
   45.8364   31.6058   46.0907 H   0  0  0  0  0  0  0  0  0  0  0  0
   47.3311   32.4873   46.4834 H   0  0  0  0  0  0  0  0  0  0  0  0
   46.4230   32.5595   48.5998 H   0  0  0  0  0  0  0  0  0  0  0  0
   45.4722   33.9367   47.9159 H   0  0  0  0  0  0  0  0  0  0  0  0
   44.2949   32.0436   49.0918 H   0  0  0  0  0  0  0  0  0  0  0  0
   43.6660   32.6493   47.6542 H   0  0  0  0  0  0  0  0  0  0  0  0
  1  6  2  0
  2  1  1  0
  3  2  2  0
  3  4  1  0
  4  5  2  0
  5  6  1  0
  5  7  1  0
  7  8  1  0
  8  9  1  0
  1 10  1  0
  2 11  1  0
  3 12  1  0
  7 13  1  0
  7 14  1  0
  8 15  1  0
  8 16  1  0
  9 17  1  0
  9 18  1  0
M  ISO  8  10  14  11  14  12  14  13   8  14   8  15   8  16   8  17   5
M  ISO  1  18   5
M  END
>  <minimizedAffinity>  (1) 
-3.4444139

>  <minimizedRMSD>  (1) 
0.45037809

$$$$
