
     RDKit          3D

 41 44  0  0  0  0  0  0  0  0999 V2000
   44.0890   33.5740   40.6010 C   0  0  0  0  0  0  0  0  0  0  0  0
   44.3770   34.7270   41.3570 C   0  0  0  0  0  0  0  0  0  0  0  0
   43.3780   35.7050   41.5140 C   0  0  0  0  0  0  0  0  0  0  0  0
   42.1710   35.4820   40.9200 N   0  0  0  0  0  0  0  0  0  0  0  0
   41.9370   34.3750   40.2110 C   0  0  0  0  0  0  0  0  0  0  0  0
   42.8870   33.4340   40.0550 N   0  0  0  0  0  0  0  0  0  0  0  0
   39.7430   33.5960   41.7280 F   0  0  0  0  0  0  0  0  0  0  0  0
   39.5490   33.7960   40.3900 C   0  0  0  0  0  0  0  0  0  0  0  0
   40.6340   34.1880   39.5990 C   0  0  0  0  0  0  0  0  0  0  0  0
   40.4890   34.4000   38.2550 C   0  0  0  0  0  0  0  0  0  0  0  0
   39.2200   34.2090   37.7010 C   0  0  0  0  0  0  0  0  0  0  0  0
   38.1290   33.8210   38.4670 C   0  0  0  0  0  0  0  0  0  0  0  0
   38.2980   33.6100   39.8390 C   0  0  0  0  0  0  0  0  0  0  0  0
   45.6920   34.9070   41.9700 C   0  0  0  0  0  0  0  0  0  0  0  0
   46.8470   34.8610   41.3290 C   0  0  0  0  0  0  0  0  0  0  0  0
   48.1310   35.0640   42.0860 C   0  0  0  0  0  0  0  0  0  0  0  0
   50.2930   33.8860   42.4650 C   0  0  0  0  0  0  0  0  0  0  0  0
   49.1120   34.0040   41.7530 C   0  0  0  0  0  0  0  0  0  0  0  0
   48.9230   33.0770   40.7270 C   0  0  0  0  0  0  0  0  0  0  0  0
   49.8790   32.1010   40.4560 C   0  0  0  0  0  0  0  0  0  0  0  0
   49.9490   31.1180   39.5580 N   0  0  0  0  0  0  0  0  0  0  0  0
   51.1030   30.4260   39.6980 C   0  0  0  0  0  0  0  0  0  0  0  0
   51.8270   30.9870   40.7450 C   0  0  0  0  0  0  0  0  0  0  0  0
   51.0490   32.0310   41.2060 C   0  0  0  0  0  0  0  0  0  0  0  0
   51.2630   32.9330   42.2240 C   0  0  0  0  0  0  0  0  0  0  0  0
   44.8541   32.7956   40.4640 H   0  0  0  0  0  0  0  0  0  0  0  0
   43.5644   36.6193   42.0966 H   0  0  0  0  0  0  0  0  0  0  0  0
   41.3412   34.7099   37.6324 H   0  0  0  0  0  0  0  0  0  0  0  0
   39.0811   34.3715   36.6220 H   0  0  0  0  0  0  0  0  0  0  0  0
   37.1429   33.6812   38.0000 H   0  0  0  0  0  0  0  0  0  0  0  0
   37.4493   33.3015   40.4672 H   0  0  0  0  0  0  0  0  0  0  0  0
   45.7227   35.0962   43.0532 H   0  0  0  0  0  0  0  0  0  0  0  0
   46.8693   34.6748   40.2451 H   0  0  0  0  0  0  0  0  0  0  0  0
   48.5549   36.0438   41.8208 H   0  0  0  0  0  0  0  0  0  0  0  0
   47.9156   35.0188   43.1638 H   0  0  0  0  0  0  0  0  0  0  0  0
   50.4717   34.6021   43.2807 H   0  0  0  0  0  0  0  0  0  0  0  0
   48.0046   33.1178   40.1229 H   0  0  0  0  0  0  0  0  0  0  0  0
   49.2246   30.9137   38.8549 H   0  0  0  0  0  0  0  0  0  0  0  0
   51.4157   29.5659   39.0877 H   0  0  0  0  0  0  0  0  0  0  0  0
   52.8088   30.6676   41.1245 H   0  0  0  0  0  0  0  0  0  0  0  0
   52.1812   32.8956   42.8286 H   0  0  0  0  0  0  0  0  0  0  0  0
  1  2  2  0
  2  3  1  0
  2 14  1  0
  4  3  2  0
  5  4  1  0
  6  5  2  0
  6  1  1  0
  8  7  1  0
  9  5  1  0
  9  8  2  0
 10  9  1  0
 11 10  2  0
 11 12  1  0
 12 13  2  0
 13  8  1  0
 15 14  2  0
 15 16  1  0
 18 16  1  0
 18 17  2  0
 19 18  1  0
 20 19  2  0
 20 24  1  0
 21 22  1  0
 21 20  1  0
 22 23  2  0
 23 24  1  0
 24 25  2  0
 25 17  1  0
  1 26  1  0
  3 27  1  0
 10 28  1  0
 11 29  1  0
 12 30  1  0
 13 31  1  0
 14 32  1  0
 15 33  1  0
 16 34  1  0
 16 35  1  0
 17 36  1  0
 19 37  1  0
 21 38  1  0
 22 39  1  0
 23 40  1  0
 25 41  1  0
M  ISO  8  26  14  27  14  28  14  29  14  30  14  31  14  34   8  35   8
M  ISO  6  36  14  37  14  38   9  39  14  40  14  41  14
M  END
>  <minimizedAffinity>  (1) 
-6.68569803

>  <minimizedRMSD>  (1) 
0.819086909

$$$$
