
     RDKit          3D

 36 38  0  0  0  0  0  0  0  0999 V2000
   44.1540   33.6120   40.6850 C   0  0  0  0  0  0  0  0  0  0  0  0
   44.4280   34.7870   41.4420 C   0  0  0  0  0  0  0  0  0  0  0  0
   43.4390   35.7510   41.5650 C   0  0  0  0  0  0  0  0  0  0  0  0
   42.2470   35.5160   40.9500 N   0  0  0  0  0  0  0  0  0  0  0  0
   42.0160   34.3980   40.2440 C   0  0  0  0  0  0  0  0  0  0  0  0
   42.9620   33.4470   40.1080 N   0  0  0  0  0  0  0  0  0  0  0  0
   39.8050   33.6310   41.7410 F   0  0  0  0  0  0  0  0  0  0  0  0
   39.6170   33.8360   40.4050 C   0  0  0  0  0  0  0  0  0  0  0  0
   40.7130   34.2230   39.6280 C   0  0  0  0  0  0  0  0  0  0  0  0
   40.5840   34.4420   38.2850 C   0  0  0  0  0  0  0  0  0  0  0  0
   39.3270   34.2670   37.7130 C   0  0  0  0  0  0  0  0  0  0  0  0
   38.2210   33.8840   38.4590 C   0  0  0  0  0  0  0  0  0  0  0  0
   38.3720   33.6630   39.8400 C   0  0  0  0  0  0  0  0  0  0  0  0
   45.7390   34.8470   42.0760 C   0  0  0  0  0  0  0  0  0  0  0  0
   46.8970   34.8700   41.4600 C   0  0  0  0  0  0  0  0  0  0  0  0
   48.1670   34.8920   42.2520 C   0  0  0  0  0  0  0  0  0  0  0  0
   49.0610   33.8270   41.7320 C   0  0  0  0  0  0  0  0  0  0  0  0
   50.2670   33.6400   42.3760 C   0  0  0  0  0  0  0  0  0  0  0  0
   51.1940   32.6720   41.9830 C   0  0  0  0  0  0  0  0  0  0  0  0
   50.8700   31.8740   40.8970 C   0  0  0  0  0  0  0  0  0  0  0  0
   49.6580   32.0870   40.2750 C   0  0  0  0  0  0  0  0  0  0  0  0
   48.7800   33.0460   40.6930 N   0  0  0  0  0  0  0  0  0  0  0  0
   44.9277   32.8378   40.5756 H   0  0  0  0  0  0  0  0  0  0  0  0
   43.6112   36.6733   42.1392 H   0  0  0  0  0  0  0  0  0  0  0  0
   41.4469   34.7472   37.6749 H   0  0  0  0  0  0  0  0  0  0  0  0
   39.2062   34.4381   36.6331 H   0  0  0  0  0  0  0  0  0  0  0  0
   37.2405   33.7551   37.9773 H   0  0  0  0  0  0  0  0  0  0  0  0
   37.5135   33.3582   40.4566 H   0  0  0  0  0  0  0  0  0  0  0  0
   45.7594   34.8757   43.1754 H   0  0  0  0  0  0  0  0  0  0  0  0
   46.9347   34.8731   40.3607 H   0  0  0  0  0  0  0  0  0  0  0  0
   48.6549   35.8720   42.1448 H   0  0  0  0  0  0  0  0  0  0  0  0
   47.9519   34.7189   43.3168 H   0  0  0  0  0  0  0  0  0  0  0  0
   50.5088   34.2813   43.2364 H   0  0  0  0  0  0  0  0  0  0  0  0
   52.1478   32.5473   42.5166 H   0  0  0  0  0  0  0  0  0  0  0  0
   51.5594   31.0938   40.5419 H   0  0  0  0  0  0  0  0  0  0  0  0
   49.3885   31.4619   39.4109 H   0  0  0  0  0  0  0  0  0  0  0  0
  1  2  2  0
  2  3  1  0
  2 14  1  0
  4  3  2  0
  5  4  1  0
  6  5  2  0
  6  1  1  0
  8  7  1  0
  9  5  1  0
  9  8  2  0
 10  9  1  0
 11 10  2  0
 11 12  1  0
 12 13  2  0
 13  8  1  0
 15 14  2  0
 15 16  1  0
 17 16  1  0
 17 18  2  0
 19 18  1  0
 20 19  2  0
 21 22  2  0
 21 20  1  0
 22 17  1  0
  1 23  1  0
  3 24  1  0
 10 25  1  0
 11 26  1  0
 12 27  1  0
 13 28  1  0
 14 29  1  0
 15 30  1  0
 16 31  1  0
 16 32  1  0
 18 33  1  0
 19 34  1  0
 20 35  1  0
 21 36  1  0
M  ISO  8  23  14  24  14  25  14  26  14  27  14  28  14  31   8  32   8
M  ISO  4  33  14  34  14  35  14  36  14
M  END
>  <minimizedAffinity>  (1) 
-6.23749733

>  <minimizedRMSD>  (1) 
0.484110951

$$$$
