
     RDKit          3D

 35 37  0  0  0  0  0  0  0  0999 V2000
   44.1200   33.6640   40.7180 C   0  0  0  0  0  0  0  0  0  0  0  0
   44.3640   34.8060   41.5220 C   0  0  0  0  0  0  0  0  0  0  0  0
   43.3480   35.7490   41.6790 C   0  0  0  0  0  0  0  0  0  0  0  0
   42.1600   35.5240   41.0470 N   0  0  0  0  0  0  0  0  0  0  0  0
   41.9680   34.4290   40.2930 C   0  0  0  0  0  0  0  0  0  0  0  0
   42.9360   33.5160   40.1350 N   0  0  0  0  0  0  0  0  0  0  0  0
   39.7400   33.6220   41.7330 F   0  0  0  0  0  0  0  0  0  0  0  0
   39.5690   33.8380   40.4010 C   0  0  0  0  0  0  0  0  0  0  0  0
   40.6710   34.2450   39.6410 C   0  0  0  0  0  0  0  0  0  0  0  0
   40.5740   34.4810   38.2920 C   0  0  0  0  0  0  0  0  0  0  0  0
   39.3270   34.2990   37.6980 C   0  0  0  0  0  0  0  0  0  0  0  0
   38.2060   33.8890   38.4460 C   0  0  0  0  0  0  0  0  0  0  0  0
   38.3360   33.6580   39.8110 C   0  0  0  0  0  0  0  0  0  0  0  0
   45.6710   34.9820   42.1740 C   0  0  0  0  0  0  0  0  0  0  0  0
   46.8340   34.7520   41.5890 C   0  0  0  0  0  0  0  0  0  0  0  0
   48.1090   34.9680   42.3580 C   0  0  0  0  0  0  0  0  0  0  0  0
   48.9590   33.7720   42.4040 C   0  0  0  0  0  0  0  0  0  0  0  0
   50.3330   33.7520   42.2360 C   0  0  0  0  0  0  0  0  0  0  0  0
   51.0990   32.6080   42.2860 C   0  0  0  0  0  0  0  0  0  0  0  0
   50.4580   31.4290   42.5140 N   0  0  0  0  0  0  0  0  0  0  0  0
   49.1110   31.4150   42.6820 C   0  0  0  0  0  0  0  0  0  0  0  0
   48.4000   32.5520   42.6260 N   0  0  0  0  0  0  0  0  0  0  0  0
   44.9053   32.9065   40.5782 H   0  0  0  0  0  0  0  0  0  0  0  0
   43.5003   36.6479   42.2945 H   0  0  0  0  0  0  0  0  0  0  0  0
   41.4464   34.8011   37.7034 H   0  0  0  0  0  0  0  0  0  0  0  0
   39.2151   34.4798   36.6188 H   0  0  0  0  0  0  0  0  0  0  0  0
   37.2324   33.7522   37.9526 H   0  0  0  0  0  0  0  0  0  0  0  0
   37.4705   33.3374   40.4094 H   0  0  0  0  0  0  0  0  0  0  0  0
   45.6812   35.3281   43.2181 H   0  0  0  0  0  0  0  0  0  0  0  0
   46.8693   34.4047   40.5459 H   0  0  0  0  0  0  0  0  0  0  0  0
   48.6738   35.7816   41.8794 H   0  0  0  0  0  0  0  0  0  0  0  0
   47.8317   35.2154   43.3933 H   0  0  0  0  0  0  0  0  0  0  0  0
   50.8445   34.7082   42.0513 H   0  0  0  0  0  0  0  0  0  0  0  0
   52.1895   32.6460   42.1467 H   0  0  0  0  0  0  0  0  0  0  0  0
   48.5961   30.4605   42.8662 H   0  0  0  0  0  0  0  0  0  0  0  0
  1  2  2  0
  2  3  1  0
  2 14  1  0
  4  3  2  0
  5  4  1  0
  6  5  2  0
  6  1  1  0
  8  7  1  0
  9  5  1  0
  9  8  2  0
 10  9  1  0
 11 10  2  0
 11 12  1  0
 12 13  2  0
 13  8  1  0
 15 14  2  0
 15 16  1  0
 16 17  1  0
 17 22  2  0
 18 19  2  0
 18 17  1  0
 19 20  1  0
 20 21  2  0
 22 21  1  0
  1 23  1  0
  3 24  1  0
 10 25  1  0
 11 26  1  0
 12 27  1  0
 13 28  1  0
 14 29  1  0
 15 30  1  0
 16 31  1  0
 16 32  1  0
 18 33  1  0
 19 34  1  0
 21 35  1  0
M  ISO  8  23  14  24  14  25  14  26  14  27  14  28  14  31   8  32   8
M  ISO  3  33  14  34  14  35  14
M  END
>  <minimizedAffinity>  (1) 
-5.95830059

>  <minimizedRMSD>  (1) 
2.59397793

$$$$
