
     RDKit          3D

 28 29  0  0  0  0  0  0  0  0999 V2000
   44.1440   33.5650   40.7000 C   0  0  0  0  0  0  0  0  0  0  0  0
   44.4430   34.7270   41.4510 C   0  0  0  0  0  0  0  0  0  0  0  0
   43.4720   35.7180   41.5750 C   0  0  0  0  0  0  0  0  0  0  0  0
   42.2680   35.5240   40.9630 N   0  0  0  0  0  0  0  0  0  0  0  0
   42.0190   34.4180   40.2630 C   0  0  0  0  0  0  0  0  0  0  0  0
   42.9470   33.4540   40.1350 N   0  0  0  0  0  0  0  0  0  0  0  0
   39.7980   33.6440   41.7350 F   0  0  0  0  0  0  0  0  0  0  0  0
   39.6200   33.8570   40.4020 C   0  0  0  0  0  0  0  0  0  0  0  0
   40.7150   34.2490   39.6230 C   0  0  0  0  0  0  0  0  0  0  0  0
   40.5970   34.4770   38.2800 C   0  0  0  0  0  0  0  0  0  0  0  0
   39.3450   34.3060   37.7020 C   0  0  0  0  0  0  0  0  0  0  0  0
   38.2380   33.9190   38.4450 C   0  0  0  0  0  0  0  0  0  0  0  0
   38.3740   33.6880   39.8270 C   0  0  0  0  0  0  0  0  0  0  0  0
   45.7470   34.8850   42.0870 C   0  0  0  0  0  0  0  0  0  0  0  0
   46.9040   34.6750   41.4820 C   0  0  0  0  0  0  0  0  0  0  0  0
   48.2060   34.8580   42.2070 C   0  0  0  0  0  0  0  0  0  0  0  0
   49.0960   33.9890   41.5790 O   0  0  0  0  0  0  0  0  0  0  0  0
   44.8915   32.7661   40.5860 H   0  0  0  0  0  0  0  0  0  0  0  0
   43.6707   36.6335   42.1515 H   0  0  0  0  0  0  0  0  0  0  0  0
   41.4640   34.7854   37.6774 H   0  0  0  0  0  0  0  0  0  0  0  0
   39.2274   34.4827   36.6227 H   0  0  0  0  0  0  0  0  0  0  0  0
   37.2603   33.7936   37.9567 H   0  0  0  0  0  0  0  0  0  0  0  0
   37.5101   33.3806   40.4346 H   0  0  0  0  0  0  0  0  0  0  0  0
   45.7689   35.2000   43.1407 H   0  0  0  0  0  0  0  0  0  0  0  0
   46.9127   34.3604   40.4280 H   0  0  0  0  0  0  0  0  0  0  0  0
   48.5543   35.8977   42.1190 H   0  0  0  0  0  0  0  0  0  0  0  0
   48.1124   34.6462   43.2824 H   0  0  0  0  0  0  0  0  0  0  0  0
   49.6078   33.4893   42.2635 H   0  0  0  0  0  0  0  0  0  0  0  0
  1  2  2  0
  2  3  1  0
  2 14  1  0
  4  3  2  0
  5  4  1  0
  6  5  2  0
  6  1  1  0
  8  7  1  0
  9  5  1  0
  9  8  2  0
 10  9  1  0
 11 10  2  0
 11 12  1  0
 12 13  2  0
 13  8  1  0
 15 14  2  0
 15 16  1  0
 17 16  1  0
  1 18  1  0
  3 19  1  0
 10 20  1  0
 11 21  1  0
 12 22  1  0
 13 23  1  0
 14 24  1  0
 15 25  1  0
 16 26  1  0
 16 27  1  0
 17 28  1  0
M  ISO  8  18  14  19  14  20  14  21  14  22  14  23  14  26   8  27   8
M  ISO  1  28   3
M  END
>  <minimizedAffinity>  (1) 
-5.15310574

>  <minimizedRMSD>  (1) 
0.165441141

$$$$
