
     RDKit          3D

 28 29  0  0  0  0  0  0  0  0999 V2000
   44.1480   33.5560   40.6880 C   0  0  0  0  0  0  0  0  0  0  0  0
   44.4480   34.7290   41.4350 C   0  0  0  0  0  0  0  0  0  0  0  0
   43.4700   35.7130   41.5570 C   0  0  0  0  0  0  0  0  0  0  0  0
   42.2680   35.5030   40.9530 N   0  0  0  0  0  0  0  0  0  0  0  0
   42.0280   34.3790   40.2580 C   0  0  0  0  0  0  0  0  0  0  0  0
   42.9530   33.4270   40.1290 N   0  0  0  0  0  0  0  0  0  0  0  0
   39.8020   33.6220   41.7240 F   0  0  0  0  0  0  0  0  0  0  0  0
   39.6160   33.8400   40.4070 C   0  0  0  0  0  0  0  0  0  0  0  0
   40.7120   34.2230   39.6340 C   0  0  0  0  0  0  0  0  0  0  0  0
   40.5930   34.4620   38.2860 C   0  0  0  0  0  0  0  0  0  0  0  0
   39.3380   34.3110   37.7010 C   0  0  0  0  0  0  0  0  0  0  0  0
   38.2210   33.9260   38.4620 C   0  0  0  0  0  0  0  0  0  0  0  0
   38.3740   33.6900   39.8320 C   0  0  0  0  0  0  0  0  0  0  0  0
   45.7600   34.8890   42.0580 C   0  0  0  0  0  0  0  0  0  0  0  0
   46.9170   34.6690   41.4570 C   0  0  0  0  0  0  0  0  0  0  0  0
   48.2070   34.8700   42.2070 C   0  0  0  0  0  0  0  0  0  0  0  0
   49.0340   33.2980   42.5110 S   0  0  0  0  0  0  0  0  0  0  0  0
   44.9015   32.7626   40.5752 H   0  0  0  0  0  0  0  0  0  0  0  0
   43.6634   36.6345   42.1257 H   0  0  0  0  0  0  0  0  0  0  0  0
   41.4641   34.7640   37.6860 H   0  0  0  0  0  0  0  0  0  0  0  0
   39.2190   34.4965   36.6233 H   0  0  0  0  0  0  0  0  0  0  0  0
   37.2364   33.8114   37.9850 H   0  0  0  0  0  0  0  0  0  0  0  0
   37.5112   33.3877   40.4437 H   0  0  0  0  0  0  0  0  0  0  0  0
   45.7872   35.2177   43.1074 H   0  0  0  0  0  0  0  0  0  0  0  0
   46.9371   34.3388   40.4079 H   0  0  0  0  0  0  0  0  0  0  0  0
   48.8706   35.5159   41.6133 H   0  0  0  0  0  0  0  0  0  0  0  0
   47.9779   35.3369   43.1763 H   0  0  0  0  0  0  0  0  0  0  0  0
   49.1421   33.0925   43.8612 H   0  0  0  0  0  0  0  0  0  0  0  0
  1  2  2  0
  2  3  1  0
  2 14  1  0
  4  3  2  0
  5  4  1  0
  6  5  2  0
  6  1  1  0
  8  7  1  0
  9  5  1  0
  9  8  2  0
 10  9  1  0
 11 10  2  0
 11 12  1  0
 12 13  2  0
 13  8  1  0
 15 14  2  0
 15 16  1  0
 16 17  1  0
  1 18  1  0
  3 19  1  0
 10 20  1  0
 11 21  1  0
 12 22  1  0
 13 23  1  0
 14 24  1  0
 15 25  1  0
 16 26  1  0
 16 27  1  0
 17 28  1  0
M  ISO  8  18  14  19  14  20  14  21  14  22  14  23  14  26   8  27   8
M  ISO  1  28  11
M  END
>  <minimizedAffinity>  (1) 
-5.13327122

>  <minimizedRMSD>  (1) 
0.659319401

$$$$
