
     RDKit          3D

 36 38  0  0  1  0  0  0  0  0999 V2000
   44.7440   32.9920   41.1730 Br  0  0  0  0  0  0  0  0  0  0  0  0
   46.3890   33.9240   40.9130 C   0  0  0  0  0  0  0  0  0  0  0  0
   46.8800   34.7330   41.9160 C   0  0  0  0  0  0  0  0  0  0  0  0
   48.0890   35.4270   41.7440 C   0  0  0  0  0  0  0  0  0  0  0  0
   48.7620   35.2830   40.5630 C   0  0  0  0  0  0  0  0  0  0  0  0
   48.2170   34.4550   39.5910 C   0  0  0  0  0  0  0  0  0  0  0  0
   47.0540   33.7750   39.7330 C   0  0  0  0  0  0  0  0  0  0  0  0
   46.6090   32.9580   38.6510 N   0  0  0  0  0  0  0  0  0  0  0  0
   45.9710   33.3750   37.4190 C   0  0  0  0  0  0  0  0  0  0  0  0
   44.9560   32.3590   36.9410 C   0  0  0  0  0  0  0  0  0  0  0  0
   45.5890   31.0930   36.6100 N   0  0  0  0  0  0  0  0  0  0  0  0
   46.9010   31.0650   37.2320 C   0  0  0  0  0  0  0  0  0  0  0  0
   46.7660   31.5010   38.6840 C   0  0  1  0  0  0  0  0  0  0  0  0
   48.0500   31.2060   39.3180 N   0  0  0  0  0  0  0  0  0  0  0  0
   45.6330   34.0540   45.2750 C   0  0  0  0  0  0  0  0  0  0  0  0
   44.7110   35.0960   45.5100 C   0  0  0  0  0  0  0  0  0  0  0  0
   44.5360   36.0320   44.4800 C   0  0  0  0  0  0  0  0  0  0  0  0
   45.2450   35.8950   43.3340 N   0  0  0  0  0  0  0  0  0  0  0  0
   46.1310   34.8580   43.1580 C   0  0  0  0  0  0  0  0  0  0  0  0
   46.3050   33.9520   44.1460 N   0  0  0  0  0  0  0  0  0  0  0  0
   48.4854   36.0721   42.5420 H   0  0  0  0  0  0  0  0  0  0  0  0
   49.7115   35.8099   40.3872 H   0  0  0  0  0  0  0  0  0  0  0  0
   48.7652   34.3439   38.6439 H   0  0  0  0  0  0  0  0  0  0  0  0
   45.4614   34.3349   37.5889 H   0  0  0  0  0  0  0  0  0  0  0  0
   46.7483   33.4719   36.6467 H   0  0  0  0  0  0  0  0  0  0  0  0
   44.2151   32.1916   37.7366 H   0  0  0  0  0  0  0  0  0  0  0  0
   44.4728   32.7522   36.0344 H   0  0  0  0  0  0  0  0  0  0  0  0
   45.0175   30.3138   36.9665 H   0  0  0  0  0  0  0  0  0  0  0  0
   47.3086   30.0442   37.1891 H   0  0  0  0  0  0  0  0  0  0  0  0
   47.5812   31.7459   36.6995 H   0  0  0  0  0  0  0  0  0  0  0  0
   45.9332   31.0111   39.2098 H   0  0  0  0  0  0  0  0  0  0  0  0
   47.9411   31.2310   40.3419 H   0  0  0  0  0  0  0  0  0  0  0  0
   48.3684   30.2699   39.0294 H   0  0  0  0  0  0  0  0  0  0  0  0
   45.7963   33.3016   46.0606 H   0  0  0  0  0  0  0  0  0  0  0  0
   44.1555   35.1708   46.4565 H   0  0  0  0  0  0  0  0  0  0  0  0
   43.8311   36.8677   44.6015 H   0  0  0  0  0  0  0  0  0  0  0  0
  2  1  1  0
  2  3  2  0
  3 19  1  0
  4  3  1  0
  5  4  2  0
  6  7  2  0
  6  5  1  0
  7  2  1  0
  8 13  1  0
  8  7  1  0
  9  8  1  0
 10  9  1  0
 11 10  1  0
 11 12  1  0
 12 13  1  0
 13 14  1  0
 15 16  2  0
 17 16  1  0
 18 17  2  0
 19 18  1  0
 19 20  2  0
 20 15  1  0
  4 21  1  0
  5 22  1  0
  6 23  1  0
  9 24  1  0
  9 25  1  0
 10 26  1  0
 10 27  1  0
 11 28  1  0
 12 29  1  0
 12 30  1  0
 13 31  1  1
 14 32  1  0
 14 33  1  0
 15 34  1  0
 16 35  1  0
 17 36  1  0
M  ISO  8  21  14  22  14  23  14  24  13  25  13  26  13  27  13  28   5
M  ISO  8  29  13  30  13  31  13  32   5  33   5  34  14  35  14  36  14
M  END
>  <minimizedAffinity>  (1) 
-5.47199202

>  <minimizedRMSD>  (1) 
0.215176329

$$$$
