
     RDKit          3D

 39 41  0  0  0  0  0  0  0  0999 V2000
   44.1070   33.5490   40.7170 C   0  0  0  0  0  0  0  0  0  0  0  0
   44.4060   34.7200   41.4640 C   0  0  0  0  0  0  0  0  0  0  0  0
   43.4270   35.7200   41.5880 C   0  0  0  0  0  0  0  0  0  0  0  0
   42.2260   35.5150   40.9810 N   0  0  0  0  0  0  0  0  0  0  0  0
   41.9780   34.4010   40.2860 C   0  0  0  0  0  0  0  0  0  0  0  0
   42.9150   33.4450   40.1680 N   0  0  0  0  0  0  0  0  0  0  0  0
   39.7420   33.6320   41.7310 F   0  0  0  0  0  0  0  0  0  0  0  0
   39.5740   33.8440   40.4010 C   0  0  0  0  0  0  0  0  0  0  0  0
   40.6770   34.2300   39.6480 C   0  0  0  0  0  0  0  0  0  0  0  0
   40.5890   34.4660   38.2840 C   0  0  0  0  0  0  0  0  0  0  0  0
   39.3430   34.3000   37.6850 C   0  0  0  0  0  0  0  0  0  0  0  0
   38.2130   33.9110   38.4250 C   0  0  0  0  0  0  0  0  0  0  0  0
   38.3410   33.6830   39.7930 C   0  0  0  0  0  0  0  0  0  0  0  0
   45.7030   34.9540   42.1230 C   0  0  0  0  0  0  0  0  0  0  0  0
   46.8640   34.6770   41.5360 C   0  0  0  0  0  0  0  0  0  0  0  0
   48.1650   34.9240   42.2420 C   0  0  0  0  0  0  0  0  0  0  0  0
   49.2890   34.3450   41.5710 N   0  0  0  0  0  0  0  0  0  0  0  0
   50.3220   33.9870   42.4930 C   0  0  0  0  0  0  0  0  0  0  0  0
   50.9960   32.7440   41.9790 C   0  0  0  0  0  0  0  0  0  0  0  0
   49.9220   32.0960   41.1540 C   0  0  0  0  0  0  0  0  0  0  0  0
   48.9250   33.1820   40.8180 C   0  0  0  0  0  0  0  0  0  0  0  0
   44.8530   32.7491   40.6003 H   0  0  0  0  0  0  0  0  0  0  0  0
   43.6248   36.6399   42.1578 H   0  0  0  0  0  0  0  0  0  0  0  0
   41.4686   34.7721   37.6987 H   0  0  0  0  0  0  0  0  0  0  0  0
   39.2403   34.4779   36.6044 H   0  0  0  0  0  0  0  0  0  0  0  0
   37.2387   33.7881   37.9293 H   0  0  0  0  0  0  0  0  0  0  0  0
   37.4672   33.3767   40.3869 H   0  0  0  0  0  0  0  0  0  0  0  0
   45.7114   35.3740   43.1396 H   0  0  0  0  0  0  0  0  0  0  0  0
   46.8706   34.2607   40.5179 H   0  0  0  0  0  0  0  0  0  0  0  0
   48.3227   36.0102   42.3148 H   0  0  0  0  0  0  0  0  0  0  0  0
   48.0951   34.4496   43.2320 H   0  0  0  0  0  0  0  0  0  0  0  0
   51.0543   34.8043   42.5685 H   0  0  0  0  0  0  0  0  0  0  0  0
   49.8964   33.8052   43.4909 H   0  0  0  0  0  0  0  0  0  0  0  0
   51.8715   32.9950   41.3621 H   0  0  0  0  0  0  0  0  0  0  0  0
   51.3790   32.0949   42.7802 H   0  0  0  0  0  0  0  0  0  0  0  0
   50.3518   31.6763   40.2325 H   0  0  0  0  0  0  0  0  0  0  0  0
   49.4425   31.2714   41.7018 H   0  0  0  0  0  0  0  0  0  0  0  0
   48.9602   33.4048   39.7414 H   0  0  0  0  0  0  0  0  0  0  0  0
   47.9027   32.8617   41.0676 H   0  0  0  0  0  0  0  0  0  0  0  0
  1  2  2  0
  2  3  1  0
  2 14  1  0
  4  3  2  0
  5  4  1  0
  6  5  2  0
  6  1  1  0
  8  7  1  0
  9  5  1  0
  9  8  2  0
 10  9  1  0
 11 10  2  0
 11 12  1  0
 12 13  2  0
 13  8  1  0
 15 14  2  0
 15 16  1  0
 17 16  1  0
 17 18  1  0
 19 18  1  0
 20 19  1  0
 21 20  1  0
 21 17  1  0
  1 22  1  0
  3 23  1  0
 10 24  1  0
 11 25  1  0
 12 26  1  0
 13 27  1  0
 14 28  1  0
 15 29  1  0
 16 30  1  0
 16 31  1  0
 18 32  1  0
 18 33  1  0
 19 34  1  0
 19 35  1  0
 20 36  1  0
 20 37  1  0
 21 38  1  0
 21 39  1  0
M  ISO  8  22  14  23  14  24  14  25  14  26  14  27  14  30   8  31   8
M  ISO  8  32  13  33  13  34  13  35  13  36  13  37  13  38  13  39  13
M  END
>  <minimizedAffinity>  (1) 
-5.93932247

>  <minimizedRMSD>  (1) 
1.39691484

$$$$
