
     RDKit          3D

 50 53  0  0  1  0  0  0  0  0999 V2000
   47.5000   34.0730   43.3430 C   0  0  0  0  0  0  0  0  0  0  0  0
   48.5820   33.9950   42.4300 N   0  0  0  0  0  0  0  0  0  0  0  0
   49.8370   34.3370   43.0120 C   0  0  0  0  0  0  0  0  0  0  0  0
   50.8980   33.5430   42.2980 C   0  0  0  0  0  0  0  0  0  0  0  0
   50.1510   32.3420   41.8200 C   0  0  0  0  0  0  0  0  0  0  0  0
   48.6910   32.7070   41.8020 C   0  0  2  0  0  0  0  0  0  0  0  0
   48.1040   33.9220   39.6230 C   0  0  0  0  0  0  0  0  0  0  0  0
   48.1520   32.8070   40.4330 C   0  0  0  0  0  0  0  0  0  0  0  0
   47.6140   31.6560   39.8500 C   0  0  0  0  0  0  0  0  0  0  0  0
   47.0710   31.5750   38.5810 C   0  0  0  0  0  0  0  0  0  0  0  0
   47.0480   32.7150   37.8170 C   0  0  0  0  0  0  0  0  0  0  0  0
   47.5680   33.8730   38.3540 C   0  0  0  0  0  0  0  0  0  0  0  0
   49.0950   36.1000   40.6580 N   0  0  0  0  0  0  0  0  0  0  0  0
   48.6550   35.1270   40.2080 C   0  0  0  0  0  0  0  0  0  0  0  0
   45.5850   34.7990   41.9790 C   0  0  0  0  0  0  0  0  0  0  0  0
   46.1590   33.8330   42.7080 C   0  0  0  0  0  0  0  0  0  0  0  0
   43.9820   33.5050   40.4870 C   0  0  0  0  0  0  0  0  0  0  0  0
   44.2710   34.6200   41.3320 C   0  0  0  0  0  0  0  0  0  0  0  0
   43.2770   35.5740   41.5560 C   0  0  0  0  0  0  0  0  0  0  0  0
   42.0690   35.3970   40.9540 N   0  0  0  0  0  0  0  0  0  0  0  0
   41.8280   34.3490   40.1720 C   0  0  0  0  0  0  0  0  0  0  0  0
   42.7830   33.4250   39.9520 N   0  0  0  0  0  0  0  0  0  0  0  0
   39.6160   33.5480   41.6420 F   0  0  0  0  0  0  0  0  0  0  0  0
   39.4220   33.7910   40.3100 C   0  0  0  0  0  0  0  0  0  0  0  0
   40.5160   34.1950   39.5440 C   0  0  0  0  0  0  0  0  0  0  0  0
   40.4030   34.4590   38.1960 C   0  0  0  0  0  0  0  0  0  0  0  0
   39.1480   34.3080   37.6150 C   0  0  0  0  0  0  0  0  0  0  0  0
   38.0240   33.8990   38.3730 C   0  0  0  0  0  0  0  0  0  0  0  0
   38.1790   33.6420   39.7280 C   0  0  0  0  0  0  0  0  0  0  0  0
   47.6528   33.3185   44.1288 H   0  0  0  0  0  0  0  0  0  0  0  0
   47.4888   35.0974   43.7435 H   0  0  0  0  0  0  0  0  0  0  0  0
   50.0271   35.4135   42.8892 H   0  0  0  0  0  0  0  0  0  0  0  0
   49.8403   34.1085   44.0880 H   0  0  0  0  0  0  0  0  0  0  0  0
   51.3162   34.1108   41.4538 H   0  0  0  0  0  0  0  0  0  0  0  0
   51.7578   33.2937   42.9372 H   0  0  0  0  0  0  0  0  0  0  0  0
   50.4841   32.0686   40.8079 H   0  0  0  0  0  0  0  0  0  0  0  0
   50.3311   31.4807   42.4801 H   0  0  0  0  0  0  0  0  0  0  0  0
   48.1179   31.9249   42.3216 H   0  0  0  0  0  0  0  0  0  0  0  0
   47.6235   30.7357   40.4525 H   0  0  0  0  0  0  0  0  0  0  0  0
   46.6698   30.6261   38.1956 H   0  0  0  0  0  0  0  0  0  0  0  0
   46.6252   32.7047   36.8016 H   0  0  0  0  0  0  0  0  0  0  0  0
   47.5548   34.7910   37.7481 H   0  0  0  0  0  0  0  0  0  0  0  0
   46.1107   35.7577   41.8586 H   0  0  0  0  0  0  0  0  0  0  0  0
   45.6504   32.8668   42.8416 H   0  0  0  0  0  0  0  0  0  0  0  0
   44.7415   32.7343   40.2891 H   0  0  0  0  0  0  0  0  0  0  0  0
   43.4647   36.4449   42.2012 H   0  0  0  0  0  0  0  0  0  0  0  0
   41.2724   34.7771   37.6019 H   0  0  0  0  0  0  0  0  0  0  0  0
   39.0259   34.5112   36.5409 H   0  0  0  0  0  0  0  0  0  0  0  0
   37.0403   33.7864   37.8938 H   0  0  0  0  0  0  0  0  0  0  0  0
   37.3182   33.3221   40.3335 H   0  0  0  0  0  0  0  0  0  0  0  0
  2  3  1  0
  2  1  1  0
  4  3  1  0
  5  4  1  0
  6  5  1  0
  6  2  1  0
  7 14  1  0
  7  8  2  0
  8  6  1  0
  9  8  1  0
 10  9  2  0
 11 12  2  0
 11 10  1  0
 12  7  1  0
 14 13  3  0
 15 16  2  0
 16  1  1  0
 17 18  2  0
 18 19  1  0
 18 15  1  0
 20 19  2  0
 21 20  1  0
 22 21  2  0
 22 17  1  0
 24 23  1  0
 25 21  1  0
 25 24  2  0
 26 25  1  0
 27 26  2  0
 27 28  1  0
 28 29  2  0
 29 24  1  0
  1 30  1  0
  1 31  1  0
  3 32  1  0
  3 33  1  0
  4 34  1  0
  4 35  1  0
  5 36  1  0
  5 37  1  0
  6 38  1  1
  9 39  1  0
 10 40  1  0
 11 41  1  0
 12 42  1  0
 15 43  1  0
 16 44  1  0
 17 45  1  0
 19 46  1  0
 26 47  1  0
 27 48  1  0
 28 49  1  0
 29 50  1  0
M  ISO  8  30   8  31   8  32  13  33  13  34  13  35  13  36  13  37  13
M  ISO  8  38  13  39  14  40  14  41  14  42  14  45  14  46  14  47  14
M  ISO  3  48  14  49  14  50  14
M  END
>  <minimizedAffinity>  (1) 
-6.18592978

>  <minimizedRMSD>  (1) 
1.19871628

$$$$
