
     RDKit          3D

 40 42  0  0  1  0  0  0  0  0999 V2000
   44.0740   33.5540   40.6720 C   0  0  0  0  0  0  0  0  0  0  0  0
   44.3670   34.7010   41.4400 C   0  0  0  0  0  0  0  0  0  0  0  0
   43.3760   35.6900   41.6050 C   0  0  0  0  0  0  0  0  0  0  0  0
   42.1750   35.4780   41.0030 N   0  0  0  0  0  0  0  0  0  0  0  0
   41.9320   34.3770   40.2790 C   0  0  0  0  0  0  0  0  0  0  0  0
   42.8830   33.4390   40.1290 N   0  0  0  0  0  0  0  0  0  0  0  0
   39.7130   33.5920   41.7250 F   0  0  0  0  0  0  0  0  0  0  0  0
   39.5370   33.8140   40.4070 C   0  0  0  0  0  0  0  0  0  0  0  0
   40.6310   34.2070   39.6620 C   0  0  0  0  0  0  0  0  0  0  0  0
   40.5380   34.4590   38.2910 C   0  0  0  0  0  0  0  0  0  0  0  0
   39.3050   34.3040   37.6760 C   0  0  0  0  0  0  0  0  0  0  0  0
   38.1750   33.9030   38.4200 C   0  0  0  0  0  0  0  0  0  0  0  0
   38.3000   33.6600   39.7840 C   0  0  0  0  0  0  0  0  0  0  0  0
   45.6710   34.9280   42.0920 C   0  0  0  0  0  0  0  0  0  0  0  0
   46.8350   34.6720   41.4780 C   0  0  0  0  0  0  0  0  0  0  0  0
   48.1390   34.9190   42.1800 C   0  0  0  0  0  0  0  0  0  0  0  0
   49.2380   34.2180   41.5770 N   0  0  0  0  0  0  0  0  0  0  0  0
   50.3580   34.1620   42.4500 C   0  0  0  0  0  0  0  0  0  0  0  0
   51.0600   32.8590   42.2480 C   0  0  0  0  0  0  0  0  0  0  0  0
   49.9610   31.9740   41.7260 C   0  0  0  0  0  0  0  0  0  0  0  0
   48.8780   32.8780   41.2010 C   0  0  2  0  0  0  0  0  0  0  0  0
   48.6530   32.6620   39.4250 S   0  0  0  0  0  0  0  0  0  0  0  0
   44.8308   32.7684   40.5301 H   0  0  0  0  0  0  0  0  0  0  0  0
   43.5666   36.5972   42.1972 H   0  0  0  0  0  0  0  0  0  0  0  0
   41.4206   34.7724   37.7141 H   0  0  0  0  0  0  0  0  0  0  0  0
   39.2067   34.4956   36.5973 H   0  0  0  0  0  0  0  0  0  0  0  0
   37.2005   33.7832   37.9240 H   0  0  0  0  0  0  0  0  0  0  0  0
   37.4235   33.3467   40.3701 H   0  0  0  0  0  0  0  0  0  0  0  0
   45.6888   35.3215   43.1190 H   0  0  0  0  0  0  0  0  0  0  0  0
   46.8347   34.2776   40.4511 H   0  0  0  0  0  0  0  0  0  0  0  0
   48.3534   35.9976   42.1536 H   0  0  0  0  0  0  0  0  0  0  0  0
   48.0355   34.5482   43.2104 H   0  0  0  0  0  0  0  0  0  0  0  0
   51.0448   34.9910   42.2242 H   0  0  0  0  0  0  0  0  0  0  0  0
   50.0231   34.2486   43.4942 H   0  0  0  0  0  0  0  0  0  0  0  0
   51.8744   32.9558   41.5149 H   0  0  0  0  0  0  0  0  0  0  0  0
   51.5379   32.4726   43.1603 H   0  0  0  0  0  0  0  0  0  0  0  0
   50.3436   31.3341   40.9172 H   0  0  0  0  0  0  0  0  0  0  0  0
   49.5741   31.3194   42.5208 H   0  0  0  0  0  0  0  0  0  0  0  0
   47.8977   32.6324   41.6355 H   0  0  0  0  0  0  0  0  0  0  0  0
   47.6783   31.7263   39.1986 H   0  0  0  0  0  0  0  0  0  0  0  0
  1  2  2  0
  2  3  1  0
  2 14  1  0
  4  3  2  0
  5  4  1  0
  6  5  2  0
  6  1  1  0
  8  7  1  0
  9  5  1  0
  9  8  2  0
 10  9  1  0
 11 10  2  0
 11 12  1  0
 12 13  2  0
 13  8  1  0
 15 14  2  0
 15 16  1  0
 17 16  1  0
 17 18  1  0
 19 18  1  0
 20 19  1  0
 21 17  1  0
 21 20  1  0
 22 21  1  0
  1 23  1  0
  3 24  1  0
 10 25  1  0
 11 26  1  0
 12 27  1  0
 13 28  1  0
 14 29  1  0
 15 30  1  0
 16 31  1  0
 16 32  1  0
 18 33  1  0
 18 34  1  0
 19 35  1  0
 19 36  1  0
 20 37  1  0
 20 38  1  0
 21 39  1  1
 22 40  1  0
M  ISO  8  23  14  24  14  25  14  26  14  27  14  28  14  31   8  32   8
M  ISO  8  33  13  34  13  35  13  36  13  37  13  38  13  39  13  40  11
M  END
>  <minimizedAffinity>  (1) 
-6.06307316

>  <minimizedRMSD>  (1) 
0.232767522

$$$$
