
     RDKit          3D

 29 30  0  0  0  0  0  0  0  0999 V2000
   44.6180   35.5570   44.6900 C   0  0  0  0  0  0  0  0  0  0  0  0
   45.4040   35.1610   43.5930 C   0  0  0  0  0  0  0  0  0  0  0  0
   46.2670   34.0960   43.7970 C   0  0  0  0  0  0  0  0  0  0  0  0
   46.3190   33.4980   45.0020 N   0  0  0  0  0  0  0  0  0  0  0  0
   45.5590   33.8960   46.0310 C   0  0  0  0  0  0  0  0  0  0  0  0
   44.7020   34.9270   45.8870 N   0  0  0  0  0  0  0  0  0  0  0  0
   47.0670   33.7110   42.6390 C   0  0  0  0  0  0  0  0  0  0  0  0
   46.3800   34.2490   41.4020 C   0  0  0  0  0  0  0  0  0  0  0  0
   47.2930   34.2790   40.1970 C   0  0  0  0  0  0  0  0  0  0  0  0
   48.5280   35.1070   40.4410 C   0  0  0  0  0  0  0  0  0  0  0  0
   48.6460   35.5230   41.8900 C   0  0  0  0  0  0  0  0  0  0  0  0
   48.4350   34.3660   42.8300 C   0  0  0  0  0  0  0  0  0  0  0  0
   45.1920   35.9490   42.3660 C   0  0  0  0  0  0  0  0  0  0  0  0
   43.9185   36.3980   44.5737 H   0  0  0  0  0  0  0  0  0  0  0  0
   45.6346   33.3788   46.9989 H   0  0  0  0  0  0  0  0  0  0  0  0
   47.1785   32.6217   42.5336 H   0  0  0  0  0  0  0  0  0  0  0  0
   45.5150   33.6092   41.1729 H   0  0  0  0  0  0  0  0  0  0  0  0
   46.0739   35.2840   41.6142 H   0  0  0  0  0  0  0  0  0  0  0  0
   46.7425   34.7058   39.3456 H   0  0  0  0  0  0  0  0  0  0  0  0
   47.6130   33.2473   39.9892 H   0  0  0  0  0  0  0  0  0  0  0  0
   49.4137   34.5151   40.1669 H   0  0  0  0  0  0  0  0  0  0  0  0
   48.4567   36.0175   39.8279 H   0  0  0  0  0  0  0  0  0  0  0  0
   49.6502   35.9388   42.0591 H   0  0  0  0  0  0  0  0  0  0  0  0
   47.8652   36.2709   42.0925 H   0  0  0  0  0  0  0  0  0  0  0  0
   48.5118   34.7313   43.8647 H   0  0  0  0  0  0  0  0  0  0  0  0
   49.2050   33.6104   42.6149 H   0  0  0  0  0  0  0  0  0  0  0  0
   44.9149   36.9790   42.6350 H   0  0  0  0  0  0  0  0  0  0  0  0
   46.1187   35.9615   41.7735 H   0  0  0  0  0  0  0  0  0  0  0  0
   44.3841   35.4948   41.7735 H   0  0  0  0  0  0  0  0  0  0  0  0
  1  6  2  0
  2  3  2  0
  2  1  1  0
  3  4  1  0
  4  5  2  0
  6  5  1  0
  7 12  1  0
  7  3  1  0
  8  7  1  0
  9 10  1  0
  9  8  1  0
 10 11  1  0
 11 12  1  0
 13  2  1  0
  1 14  1  0
  5 15  1  0
  7 16  1  0
  8 17  1  0
  8 18  1  0
  9 19  1  0
  9 20  1  0
 10 21  1  0
 10 22  1  0
 11 23  1  0
 11 24  1  0
 12 25  1  0
 12 26  1  0
 13 27  1  0
 13 28  1  0
 13 29  1  0
M  ISO  8  14  14  15  14  16  13  17  13  18  13  19  13  20  13  21  13
M  ISO  8  22  13  23  13  24  13  25  13  26  13  27   8  28   8  29   8
M  END
>  <minimizedAffinity>  (1) 
-4.91538477

>  <minimizedRMSD>  (1) 
2.11145449

$$$$
