
     RDKit          3D

 22 23  0  0  0  0  0  0  0  0999 V2000
   44.6420   35.3810   45.0840 C   0  0  0  0  0  0  0  0  0  0  0  0
   45.2770   35.4120   43.8300 C   0  0  0  0  0  0  0  0  0  0  0  0
   46.2600   34.4620   43.5940 C   0  0  0  0  0  0  0  0  0  0  0  0
   46.5470   33.5750   44.5660 N   0  0  0  0  0  0  0  0  0  0  0  0
   45.9250   33.5630   45.7610 C   0  0  0  0  0  0  0  0  0  0  0  0
   44.9570   34.4670   46.0450 N   0  0  0  0  0  0  0  0  0  0  0  0
   46.9010   34.5150   42.2960 C   0  0  0  0  0  0  0  0  0  0  0  0
   48.0490   35.2940   42.1360 C   0  0  0  0  0  0  0  0  0  0  0  0
   48.6820   35.3610   40.9020 C   0  0  0  0  0  0  0  0  0  0  0  0
   48.2060   34.6710   39.8150 C   0  0  0  0  0  0  0  0  0  0  0  0
   47.0660   33.9050   39.9990 C   0  0  0  0  0  0  0  0  0  0  0  0
   46.4920   33.8690   41.1930 N   0  0  0  0  0  0  0  0  0  0  0  0
   44.8220   36.4580   42.9090 C   0  0  0  0  0  0  0  0  0  0  0  0
   43.8597   36.1240   45.2982 H   0  0  0  0  0  0  0  0  0  0  0  0
   46.2060   32.8116   46.5136 H   0  0  0  0  0  0  0  0  0  0  0  0
   48.4532   35.8565   42.9906 H   0  0  0  0  0  0  0  0  0  0  0  0
   49.5845   35.9804   40.7931 H   0  0  0  0  0  0  0  0  0  0  0  0
   48.7088   34.7239   38.8381 H   0  0  0  0  0  0  0  0  0  0  0  0
   46.6413   33.3320   39.1616 H   0  0  0  0  0  0  0  0  0  0  0  0
   44.4483   37.3170   43.4856 H   0  0  0  0  0  0  0  0  0  0  0  0
   45.6617   36.7791   42.2752 H   0  0  0  0  0  0  0  0  0  0  0  0
   44.0145   36.0626   42.2752 H   0  0  0  0  0  0  0  0  0  0  0  0
  1  6  2  0
  2  1  1  0
  3  2  2  0
  3  4  1  0
  4  5  2  0
  5  6  1  0
  7  3  1  0
  8  7  2  0
  9  8  1  0
 10 11  1  0
 10  9  2  0
 11 12  2  0
 12  7  1  0
 13  2  1  0
  1 14  1  0
  5 15  1  0
  8 16  1  0
  9 17  1  0
 10 18  1  0
 11 19  1  0
 13 20  1  0
 13 21  1  0
 13 22  1  0
M  ISO  8  14  14  15  14  16  14  17  14  18  14  19  14  20   8  21   8
M  ISO  1  22   8
M  END
>  <minimizedAffinity>  (1) 
-4.8192873

>  <minimizedRMSD>  (1) 
2.21550655

$$$$
