
     RDKit          3D

 19 19  0  0  0  0  0  0  0  0999 V2000
   44.9580   34.9350   45.0030 C   0  0  0  0  0  0  0  0  0  0  0  0
   45.4580   35.1960   43.7300 C   0  0  0  0  0  0  0  0  0  0  0  0
   46.5290   34.4340   43.2740 C   0  0  0  0  0  0  0  0  0  0  0  0
   47.0230   33.4820   44.0990 N   0  0  0  0  0  0  0  0  0  0  0  0
   46.5190   33.2510   45.3240 C   0  0  0  0  0  0  0  0  0  0  0  0
   45.4730   33.9710   45.8110 N   0  0  0  0  0  0  0  0  0  0  0  0
   44.7710   36.2880   42.9870 C   0  0  0  0  0  0  0  0  0  0  0  0
   47.0130   34.7540   41.9280 C   0  0  0  0  0  0  0  0  0  0  0  0
   48.3720   35.3900   41.9040 C   0  0  0  0  0  0  0  0  0  0  0  0
   44.1113   35.5337   45.3699 H   0  0  0  0  0  0  0  0  0  0  0  0
   46.9633   32.4608   45.9471 H   0  0  0  0  0  0  0  0  0  0  0  0
   44.3262   36.9950   43.7027 H   0  0  0  0  0  0  0  0  0  0  0  0
   45.4998   36.8162   42.3547 H   0  0  0  0  0  0  0  0  0  0  0  0
   43.9794   35.8596   42.3547 H   0  0  0  0  0  0  0  0  0  0  0  0
   47.0568   33.8220   41.3454 H   0  0  0  0  0  0  0  0  0  0  0  0
   46.3110   35.4864   41.5028 H   0  0  0  0  0  0  0  0  0  0  0  0
   48.7191   35.5524   42.9351 H   0  0  0  0  0  0  0  0  0  0  0  0
   49.0772   34.7284   41.3797 H   0  0  0  0  0  0  0  0  0  0  0  0
   48.3158   36.3554   41.3797 H   0  0  0  0  0  0  0  0  0  0  0  0
  1  6  2  0
  2  1  1  0
  3  2  2  0
  3  4  1  0
  4  5  2  0
  5  6  1  0
  7  2  1  0
  8  3  1  0
  9  8  1  0
  1 10  1  0
  5 11  1  0
  7 12  1  0
  7 13  1  0
  7 14  1  0
  8 15  1  0
  8 16  1  0
  9 17  1  0
  9 18  1  0
  9 19  1  0
M  ISO  8  10  14  11  14  12   8  13   8  14   8  15   8  16   8  17   8
M  ISO  2  18   8  19   8
M  END
>  <minimizedAffinity>  (1) 
-3.43260741

>  <minimizedRMSD>  (1) 
1.62144387

$$$$
