
     RDKit          3D

 14 14  0  0  0  0  0  0  0  0999 V2000
   44.3680   35.7790   44.4350 C   0  0  0  0  0  0  0  0  0  0  0  0
   44.6930   35.0560   43.2810 C   0  0  0  0  0  0  0  0  0  0  0  0
   45.3390   33.8340   43.4160 C   0  0  0  0  0  0  0  0  0  0  0  0
   45.6250   33.3990   44.6560 N   0  0  0  0  0  0  0  0  0  0  0  0
   45.2980   34.1230   45.7580 C   0  0  0  0  0  0  0  0  0  0  0  0
   44.6690   35.3170   45.6850 N   0  0  0  0  0  0  0  0  0  0  0  0
   44.2880   35.7150   42.0020 C   0  0  0  0  0  0  0  0  0  0  0  0
   45.6980   33.0120   41.8970 S   0  0  0  0  0  0  0  0  0  0  0  0
   43.8555   36.7469   44.3323 H   0  0  0  0  0  0  0  0  0  0  0  0
   45.5554   33.7214   46.7492 H   0  0  0  0  0  0  0  0  0  0  0  0
   43.7240   36.6327   42.2249 H   0  0  0  0  0  0  0  0  0  0  0  0
   45.1862   35.9689   41.4199 H   0  0  0  0  0  0  0  0  0  0  0  0
   43.6558   35.0284   41.4199 H   0  0  0  0  0  0  0  0  0  0  0  0
   46.2361   31.7800   42.1605 H   0  0  0  0  0  0  0  0  0  0  0  0
  1  6  2  0
  2  3  2  0
  2  1  1  0
  3  4  1  0
  4  5  2  0
  6  5  1  0
  7  2  1  0
  8  3  1  0
  1  9  1  0
  5 10  1  0
  7 11  1  0
  7 12  1  0
  7 13  1  0
  8 14  1  0
M  ISO  6   9  14  10  14  11   8  12   8  13   8  14  11
M  END
>  <minimizedAffinity>  (1) 
-2.88296986

>  <minimizedRMSD>  (1) 
0.0470518693

$$$$
