
     RDKit          3D

 23 24  0  0  0  0  0  0  0  0999 V2000
   44.6170   35.4620   45.0140 C   0  0  0  0  0  0  0  0  0  0  0  0
   45.2850   35.5390   43.7880 C   0  0  0  0  0  0  0  0  0  0  0  0
   46.2750   34.6020   43.5380 C   0  0  0  0  0  0  0  0  0  0  0  0
   46.5530   33.6560   44.4830 N   0  0  0  0  0  0  0  0  0  0  0  0
   45.8730   33.6260   45.6580 C   0  0  0  0  0  0  0  0  0  0  0  0
   44.9010   34.5230   45.9370 N   0  0  0  0  0  0  0  0  0  0  0  0
   46.9900   34.6610   42.2650 C   0  0  0  0  0  0  0  0  0  0  0  0
   48.1340   35.3670   41.9600 C   0  0  0  0  0  0  0  0  0  0  0  0
   48.6670   35.2970   40.6890 C   0  0  0  0  0  0  0  0  0  0  0  0
   48.0550   34.5220   39.7250 C   0  0  0  0  0  0  0  0  0  0  0  0
   46.9060   33.8080   40.0170 C   0  0  0  0  0  0  0  0  0  0  0  0
   46.3700   33.8780   41.2960 C   0  0  0  0  0  0  0  0  0  0  0  0
   44.9000   36.6030   42.8490 C   0  0  0  0  0  0  0  0  0  0  0  0
   43.8286   36.1971   45.2333 H   0  0  0  0  0  0  0  0  0  0  0  0
   46.1191   32.8530   46.4009 H   0  0  0  0  0  0  0  0  0  0  0  0
   48.6212   35.9851   42.7284 H   0  0  0  0  0  0  0  0  0  0  0  0
   49.5802   35.8593   40.4441 H   0  0  0  0  0  0  0  0  0  0  0  0
   48.4850   34.4712   38.7138 H   0  0  0  0  0  0  0  0  0  0  0  0
   46.4227   33.1919   39.2445 H   0  0  0  0  0  0  0  0  0  0  0  0
   45.4573   33.3158   41.5427 H   0  0  0  0  0  0  0  0  0  0  0  0
   44.5786   37.4911   43.4129 H   0  0  0  0  0  0  0  0  0  0  0  0
   45.7612   36.8625   42.2158 H   0  0  0  0  0  0  0  0  0  0  0  0
   44.0721   36.2513   42.2158 H   0  0  0  0  0  0  0  0  0  0  0  0
  1  6  2  0
  2  1  1  0
  3  2  2  0
  3  4  1  0
  4  5  2  0
  5  6  1  0
  7  3  1  0
  8  7  2  0
  9  8  1  0
 10 11  1  0
 10  9  2  0
 11 12  2  0
 12  7  1  0
 13  2  1  0
  1 14  1  0
  5 15  1  0
  8 16  1  0
  9 17  1  0
 10 18  1  0
 11 19  1  0
 12 20  1  0
 13 21  1  0
 13 22  1  0
 13 23  1  0
M  ISO  8  14  14  15  14  16  14  17  14  18  14  19  14  20  14  21   8
M  ISO  2  22   8  23   8
M  END
>  <minimizedAffinity>  (1) 
-5.02137852

>  <minimizedRMSD>  (1) 
2.21220088

$$$$
