
     RDKit          3D

 29 30  0  0  0  0  0  0  0  0999 V2000
   45.0070   34.7700   45.0020 C   0  0  0  0  0  0  0  0  0  0  0  0
   46.1420   34.0840   44.5810 C   0  0  0  0  0  0  0  0  0  0  0  0
   46.7100   34.4380   43.3650 C   0  0  0  0  0  0  0  0  0  0  0  0
   46.1260   35.4450   42.6400 N   0  0  0  0  0  0  0  0  0  0  0  0
   45.0220   36.0820   43.0920 C   0  0  0  0  0  0  0  0  0  0  0  0
   44.4470   35.7560   44.2750 N   0  0  0  0  0  0  0  0  0  0  0  0
   47.8860   33.7400   42.9120 C   0  0  0  0  0  0  0  0  0  0  0  0
   48.0260   32.4230   42.5620 C   0  0  0  0  0  0  0  0  0  0  0  0
   49.2440   31.9300   42.1490 C   0  0  0  0  0  0  0  0  0  0  0  0
   50.3470   32.7740   42.0840 C   0  0  0  0  0  0  0  0  0  0  0  0
   50.2260   34.0930   42.4300 C   0  0  0  0  0  0  0  0  0  0  0  0
   48.9880   34.5660   42.8430 C   0  0  0  0  0  0  0  0  0  0  0  0
   46.6710   33.0230   45.4540 C   0  0  0  0  0  0  0  0  0  0  0  0
   46.2470   33.3750   46.8060 N   0  0  0  0  0  0  0  0  0  0  0  0
   45.8640   32.2610   47.6180 C   0  0  0  0  0  0  0  0  0  0  0  0
   46.5670   31.2730   47.9530 O   0  0  0  0  0  0  0  0  0  0  0  0
   44.5150   32.2400   48.1280 N   0  0  0  0  0  0  0  0  0  0  0  0
   44.5499   34.4969   45.9645 H   0  0  0  0  0  0  0  0  0  0  0  0
   44.5796   36.8850   42.4841 H   0  0  0  0  0  0  0  0  0  0  0  0
   47.1560   31.7517   42.6113 H   0  0  0  0  0  0  0  0  0  0  0  0
   49.3439   30.8704   41.8711 H   0  0  0  0  0  0  0  0  0  0  0  0
   51.3197   32.3807   41.7536 H   0  0  0  0  0  0  0  0  0  0  0  0
   51.0946   34.7662   42.3816 H   0  0  0  0  0  0  0  0  0  0  0  0
   48.8836   35.6249   43.1219 H   0  0  0  0  0  0  0  0  0  0  0  0
   46.2567   32.0460   45.1644 H   0  0  0  0  0  0  0  0  0  0  0  0
   47.7657   32.9445   45.3796 H   0  0  0  0  0  0  0  0  0  0  0  0
   46.2254   34.3465   47.1475 H   0  0  0  0  0  0  0  0  0  0  0  0
   44.1991   31.4560   48.7166 H   0  0  0  0  0  0  0  0  0  0  0  0
   43.8676   33.0090   47.9036 H   0  0  0  0  0  0  0  0  0  0  0  0
  2  1  2  0
  2 13  1  0
  3  2  1  0
  4  5  1  0
  4  3  2  0
  5  6  2  0
  6  1  1  0
  7  3  1  0
  8  7  2  0
  9  8  1  0
 10  9  2  0
 10 11  1  0
 11 12  2  0
 12  7  1  0
 13 14  1  0
 14 15  1  0
 15 16  2  0
 15 17  1  0
  1 18  1  0
  5 19  1  0
  8 20  1  0
  9 21  1  0
 10 22  1  0
 11 23  1  0
 12 24  1  0
 13 25  1  0
 13 26  1  0
 14 27  1  0
 17 28  1  0
 17 29  1  0
M  ISO  8  18  14  19  14  20  14  21  14  22  14  23  14  24  14  25   8
M  ISO  1  26   8
M  END
>  <minimizedAffinity>  (1) 
-5.70986891

>  <minimizedRMSD>  (1) 
4.85561037

$$$$
