
     RDKit          3D

 28 29  0  0  0  0  0  0  0  0999 V2000
   44.6970   35.4680   45.3120 C   0  0  0  0  0  0  0  0  0  0  0  0
   45.4010   35.6130   44.0980 C   0  0  0  0  0  0  0  0  0  0  0  0
   46.2380   34.5940   43.7160 C   0  0  0  0  0  0  0  0  0  0  0  0
   46.3430   33.4920   44.5290 N   0  0  0  0  0  0  0  0  0  0  0  0
   45.6450   33.3920   45.6890 C   0  0  0  0  0  0  0  0  0  0  0  0
   44.8200   34.3830   46.0820 N   0  0  0  0  0  0  0  0  0  0  0  0
   46.9720   34.7160   42.4790 C   0  0  0  0  0  0  0  0  0  0  0  0
   48.1390   35.4050   42.2430 C   0  0  0  0  0  0  0  0  0  0  0  0
   48.6860   35.3970   40.9700 C   0  0  0  0  0  0  0  0  0  0  0  0
   48.0690   34.7040   39.9430 C   0  0  0  0  0  0  0  0  0  0  0  0
   46.9010   34.0120   40.1690 C   0  0  0  0  0  0  0  0  0  0  0  0
   46.3620   34.0260   41.4450 C   0  0  0  0  0  0  0  0  0  0  0  0
   45.1930   36.8500   43.3250 C   0  0  0  0  0  0  0  0  0  0  0  0
   45.0860   37.9170   44.2960 N   0  0  0  0  0  0  0  0  0  0  0  0
   45.3970   39.2040   43.7080 C   0  0  0  0  0  0  0  0  0  0  0  0
   46.7390   39.4130   43.5310 F   0  0  0  0  0  0  0  0  0  0  0  0
   44.9090   40.2510   44.4740 F   0  0  0  0  0  0  0  0  0  0  0  0
   44.8200   39.2780   42.4550 F   0  0  0  0  0  0  0  0  0  0  0  0
   44.0240   36.2756   45.6356 H   0  0  0  0  0  0  0  0  0  0  0  0
   45.7537   32.4936   46.3143 H   0  0  0  0  0  0  0  0  0  0  0  0
   48.6328   35.9566   43.0565 H   0  0  0  0  0  0  0  0  0  0  0  0
   49.6187   35.9462   40.7739 H   0  0  0  0  0  0  0  0  0  0  0  0
   48.5159   34.7063   38.9379 H   0  0  0  0  0  0  0  0  0  0  0  0
   46.4070   33.4607   39.3554 H   0  0  0  0  0  0  0  0  0  0  0  0
   45.4291   33.4771   41.6411 H   0  0  0  0  0  0  0  0  0  0  0  0
   46.0460   37.0287   42.6539 H   0  0  0  0  0  0  0  0  0  0  0  0
   44.2913   36.7853   42.6983 H   0  0  0  0  0  0  0  0  0  0  0  0
   44.1238   37.9404   44.6627 H   0  0  0  0  0  0  0  0  0  0  0  0
  1  6  2  0
  2  1  1  0
  3  2  2  0
  3  4  1  0
  4  5  2  0
  5  6  1  0
  7  3  1  0
  8  7  2  0
  9  8  1  0
 10 11  1  0
 10  9  2  0
 11 12  2  0
 12  7  1  0
 13  2  1  0
 13 14  1  0
 15 14  1  0
 15 17  1  0
 16 15  1  0
 18 15  1  0
  1 19  1  0
  5 20  1  0
  8 21  1  0
  9 22  1  0
 10 23  1  0
 11 24  1  0
 12 25  1  0
 13 26  1  0
 13 27  1  0
 14 28  1  0
M  ISO  8  19  14  20  14  21  14  22  14  23  14  24  14  25  14  26   8
M  ISO  2  27   8  28   5
M  END
>  <minimizedAffinity>  (1) 
-5.17453909

>  <minimizedRMSD>  (1) 
0.814876556

$$$$
